**********
** Parametrized suspension bridge model
** Model input generated 2022-03-30T11:27:38
**********
**********
** Part of abaqustools package
**********
**********
** 2022 Oyvind Wiig Petersen, NTNU
**********
**
**********
** User parameter values:
** 
** abaqus.FolderNameModel=C:\Cloud\OD_OWP\Work\Python\Github\abaqustools\example_suspensionbridge\sulafjorden
** abaqus.InputName=TestSulafjorden
** abaqus.JobName=TestSulafjorden
** abaqus.PartName=SuspensionBridge
** abaqus.AssemblyName=AssemblySuspensionBridge
** abaqus.RunJob=True
** abaqus.cmd=abaqus
** abaqus.cpus=4.00000e+00
** abaqus.restart=False
** abaqus.halt_error=True
** abaqus.FolderODBExport=C:/Cloud/OD_OWP/Work/Python/Github/abaqustools/odbexport
** 
** 
** cable.normaldir=0.00000e+00, 1.00000e+00, 0.00000e+00
** cable.eltype=B33
** cable.meshsize_approx=nan
** cable.N_element=5.00000e+01
** cable.tempsupport=True
** cable.N_tempsupport=1.10000e+01
** cable.polycoeff_hanger_adjust=nan
** cable.NodeNumberBase=1.00000e+04, 2.00000e+04
** cable.ElementNumberBase=1.00000e+04, 2.00000e+04
** 
** bridgedeck.N_box=2.00000e+00
** bridgedeck.normaldir=0.00000e+00, 1.00000e+00, 0.00000e+00
** bridgedeck.eltype=B31
** bridgedeck.meshsize=4.00000e+00
** bridgedeck.shell=True
** bridgedeck.NodeNumberBase=1.00000e+03, 2.00000e+03, 3.00000e+03, 4.00000e+03, 5.00000e+03
** bridgedeck.ElementNumberBase=1.00000e+03, 2.00000e+03
** bridgedeck.NodeNumberBaseOuter=1.10000e+04, 1.20000e+04
** bridgedeck.ElementNumberBaseConnLat=3.00000e+03, 4.00000e+03, 5.00000e+03, 6.00000e+03, 7.00000e+03, 8.00000e+03
** 
** hanger.normaldir=0.00000e+00, 1.00000e+00, 0.00000e+00
** hanger.eltype=B31
** hanger.ElementNumberBase=8.00000e+04, 9.00000e+04
** 
** tower.normaldir=0.00000e+00, 1.00000e+00, 0.00000e+00
** tower.eltype=B31
** tower.F_pullback_south=-7.34126e+05
** tower.F_pullback_north=7.34126e+05
** tower.z_crossbeam_south=5.15000e+01, 1.75500e+02, 2.45500e+02, 3.15500e+02, 3.85500e+02
** tower.z_crossbeam_north=5.15000e+01, 1.75500e+02, 2.45500e+02, 3.15500e+02, 3.85500e+02
** tower.h_crossbeam=8.00000e+00, 8.00000e+00, 8.00000e+00, 8.00000e+00, 8.00000e+00
** tower.b_crossbeam=5.00000e+00, 5.00000e+00, 5.00000e+00, 5.00000e+00, 5.00000e+00
** tower.t_crossbeam=1.00000e+00, 1.00000e+00, 1.00000e+00, 1.00000e+00, 1.00000e+00
** tower.N_element=nan
** tower.meshsize=5.00000e+00
** tower.NodeNumberBase=1.00000e+05, 1.10000e+05, 2.00000e+05, 2.10000e+05
** tower.ElementNumberBase=1.00000e+05, 1.10000e+05, 2.00000e+05, 2.10000e+05
** tower.K_south=7.34126e+05
** tower.K_north=7.34126e+05
** tower.K_est=2.06883e+06
** 
** bearing.type=tri
** bearing.stiffness_south=3.00000e+07, 1.00000e+12, 1.00000e+06, 1.00000e+00, 1.00000e+00, 1.00000e+00
** bearing.stiffness_north=3.00000e+07, 1.00000e+12, 1.00000e+06, 1.00000e+00, 1.00000e+00, 1.00000e+00
** bearing.NodeNumberBase=4.00000e+05
** bearing.ElementNumberBase=4.00000e+05
** 
** sadle.stiffness=1.00000e+12
** sadle.ElementNumberBase=3.00000e+05
** 
** geo.L_bridgedeck=2.80000e+03
** geo.gap=2.99740e+01
** geo.dx_hanger=2.40000e+01
** geo.dx_endpiece_max=2.40000e+01
** geo.dx_pullback_south=-1.00000e+00
** geo.dx_pullback_north=1.00000e+00
** geo.z_cog_south=5.75000e+01
** geo.z_cog_north=5.75000e+01
** geo.z_cog_midspan=7.85000e+01
** geo.dz_cog_midspan_deflection=2.50000e+01
** geo.dz_cog_south_deflection=2.00000e+00
** geo.dz_cog_north_deflection=2.00000e+00
** geo.z_cable_top_south=4.00100e+02
** geo.z_cable_top_north=4.00100e+02
** geo.z_cable_midspan=8.10000e+01
** geo.dz_cable_deflection=3.00000e+01
** geo.dy_cable_anch_south=5.20000e+01
** geo.dy_cable_top_south=4.70000e+01
** geo.dy_cable_midspan=4.70000e+01
** geo.dy_cable_top_north=4.70000e+01
** geo.dy_cable_anch_north=5.20000e+01
** geo.dy_cog_hanger=8.01300e+00
** geo.dz_cog_hanger=3.32400e-01
** geo.dy_cog_inner=7.98700e+00
** geo.dz_cog_inner=-5.32600e-01
** geo.dy_pendulum=2.50000e+00
** geo.dz_slider=-1.50000e+00
** geo.dx_bearing_base=1.00000e+00
** geo.z_tower_base_south=3.00000e+01
** geo.z_tower_base_north=3.00000e+01
** geo.z_tower_top_south=4.00000e+02
** geo.z_tower_top_north=4.00000e+02
** geo.dy_tower_base_south=5.20000e+01
** geo.dy_tower_base_north=5.20000e+01
** geo.dy_tower_top_south=4.70000e+01
** geo.dy_tower_top_north=4.70000e+01
** geo.dx_tower_anch_south=7.18500e+02
** geo.dx_tower_anch_north=5.58150e+02
** geo.z_anch_south=0.00000e+00
** geo.z_anch_north=2.00600e+02
** geo.x_tower_south=-1.40000e+03
** geo.x_tower_north=1.40000e+03
** 
** 
** modal.N_modes=1.00000e+02
** modal.normalization=displacement
**********
***********************************************************
** MATERIALS
***********************************************************
*MATERIAL, NAME=CONCRETE
*ELASTIC
3.500e+10, 0.200
*DENSITY
2.500e+03
**
**
*MATERIAL, NAME=SOFT
*ELASTIC
1.000e-06, 0.300
*DENSITY
1.000e-12
**
**
*MATERIAL, NAME=STEEL
*ELASTIC
2.100e+11, 0.300
*DENSITY
7.850e+03
**
**
*PART, NAME=SUSPENSIONBRIDGE
**
***********************************************************
** CABLE
***********************************************************
*NODE,NSET=CABLE_MAIN_EAST
10001,-2118.50000,-26.00000,0.00000
10002,-2104.15000,-25.95000,8.00200
10003,-2089.80000,-25.90000,16.00400
10004,-2075.45000,-25.85000,24.00600
10005,-2061.10000,-25.80000,32.00800
10006,-2046.75000,-25.75000,40.01000
10007,-2032.40000,-25.70000,48.01200
10008,-2018.05000,-25.65000,56.01400
10009,-2003.70000,-25.60000,64.01600
10010,-1989.35000,-25.55000,72.01800
10011,-1975.00000,-25.50000,80.02000
10012,-1960.65000,-25.45000,88.02200
10013,-1946.30000,-25.40000,96.02400
10014,-1931.95000,-25.35000,104.02600
10015,-1917.60000,-25.30000,112.02800
10016,-1903.25000,-25.25000,120.03000
10017,-1888.90000,-25.20000,128.03200
10018,-1874.55000,-25.15000,136.03400
10019,-1860.20000,-25.10000,144.03600
10020,-1845.85000,-25.05000,152.03800
** ... 199 like lines cut
**
**
*NODE,NSET=CABLE_MAIN_WEST
20001,-2118.50000,26.00000,0.00000
20002,-2104.15000,25.95000,8.00200
20003,-2089.80000,25.90000,16.00400
20004,-2075.45000,25.85000,24.00600
20005,-2061.10000,25.80000,32.00800
20006,-2046.75000,25.75000,40.01000
20007,-2032.40000,25.70000,48.01200
20008,-2018.05000,25.65000,56.01400
20009,-2003.70000,25.60000,64.01600
20010,-1989.35000,25.55000,72.01800
20011,-1975.00000,25.50000,80.02000
20012,-1960.65000,25.45000,88.02200
20013,-1946.30000,25.40000,96.02400
20014,-1931.95000,25.35000,104.02600
20015,-1917.60000,25.30000,112.02800
20016,-1903.25000,25.25000,120.03000
20017,-1888.90000,25.20000,128.03200
20018,-1874.55000,25.15000,136.03400
20019,-1860.20000,25.10000,144.03600
20020,-1845.85000,25.05000,152.03800
** ... 199 like lines cut
**
**
*ELEMENT, TYPE=B33, ELSET=CABLE_MAIN_EAST
10001, 10001, 10002
10002, 10002, 10003
10003, 10003, 10004
10004, 10004, 10005
10005, 10005, 10006
10006, 10006, 10007
10007, 10007, 10008
10008, 10008, 10009
10009, 10009, 10010
10010, 10010, 10011
10011, 10011, 10012
10012, 10012, 10013
10013, 10013, 10014
10014, 10014, 10015
10015, 10015, 10016
10016, 10016, 10017
10017, 10017, 10018
10018, 10018, 10019
10019, 10019, 10020
10020, 10020, 10021
** ... 198 like lines cut
**
**
*ELEMENT, TYPE=B33, ELSET=CABLE_MAIN_WEST
20001, 20001, 20002
20002, 20002, 20003
20003, 20003, 20004
20004, 20004, 20005
20005, 20005, 20006
20006, 20006, 20007
20007, 20007, 20008
20008, 20008, 20009
20009, 20009, 20010
20010, 20010, 20011
20011, 20011, 20012
20012, 20012, 20013
20013, 20013, 20014
20014, 20014, 20015
20015, 20015, 20016
20016, 20016, 20017
20017, 20017, 20018
20018, 20018, 20019
20019, 20019, 20020
20020, 20020, 20021
** ... 198 like lines cut
**
**
*ELEMENT, TYPE=B31, ELSET=CABLE_TEMPSUPPORT
510001, 20066, 10066
510002, 20075, 10075
510003, 20084, 10084
510004, 20093, 10093
510005, 20102, 10102
510006, 20111, 10111
510007, 20120, 10120
510008, 20129, 10129
510009, 20138, 10138
510010, 20147, 10147
510011, 20156, 10156
**
**
*NSET, NSET=CABLE_MAIN_ANCHORAGE
10001,10219,20001,20219
**
**
*NSET, NSET=CABLE_MAIN_TOP_SOUTH_EAST
10051
**
**
*NSET, NSET=CABLE_MAIN_TOP_SOUTH_WEST
20051
**
**
*NSET, NSET=CABLE_MAIN_TOP_NORTH_EAST
10169
**
**
*NSET, NSET=CABLE_MAIN_TOP_NORTH_WEST
20169
**
**
*NSET, NSET=CABLE_MAIN_TOP
CABLE_MAIN_TOP_SOUTH_EAST
CABLE_MAIN_TOP_SOUTH_WEST
CABLE_MAIN_TOP_NORTH_EAST
CABLE_MAIN_TOP_NORTH_WEST
**
**
*NSET, NSET=CABLE_MAIN_SPAN
10051,10052,10053,10054,10055,10056,10057,10058,10059,10060,10061,10062,10063,10064,10065,10066
10067,10068,10069,10070,10071,10072,10073,10074,10075,10076,10077,10078,10079,10080,10081,10082
10083,10084,10085,10086,10087,10088,10089,10090,10091,10092,10093,10094,10095,10096,10097,10098
10099,10100,10101,10102,10103,10104,10105,10106,10107,10108,10109,10110,10111,10112,10113,10114
10115,10116,10117,10118,10119,10120,10121,10122,10123,10124,10125,10126,10127,10128,10129,10130
10131,10132,10133,10134,10135,10136,10137,10138,10139,10140,10141,10142,10143,10144,10145,10146
10147,10148,10149,10150,10151,10152,10153,10154,10155,10156,10157,10158,10159,10160,10161,10162
10163,10164,10165,10166,10167,10168,10169,20051,20052,20053,20054,20055,20056,20057,20058,20059
20060,20061,20062,20063,20064,20065,20066,20067,20068,20069,20070,20071,20072,20073,20074,20075
20076,20077,20078,20079,20080,20081,20082,20083,20084,20085,20086,20087,20088,20089,20090,20091
20092,20093,20094,20095,20096,20097,20098,20099,20100,20101,20102,20103,20104,20105,20106,20107
20108,20109,20110,20111,20112,20113,20114,20115,20116,20117,20118,20119,20120,20121,20122,20123
20124,20125,20126,20127,20128,20129,20130,20131,20132,20133,20134,20135,20136,20137,20138,20139
20140,20141,20142,20143,20144,20145,20146,20147,20148,20149,20150,20151,20152,20153,20154,20155
20156,20157,20158,20159,20160,20161,20162,20163,20164,20165,20166,20167,20168,20169
**
**
*ELSET, ELSET=CABLE_MAIN
CABLE_MAIN_EAST
CABLE_MAIN_WEST
**
**
*ELSET, ELSET=CABLE_MAIN_SPAN
10051,10052,10053,10054,10055,10056,10057,10058,10059,10060,10061,10062,10063,10064,10065,10066
10067,10068,10069,10070,10071,10072,10073,10074,10075,10076,10077,10078,10079,10080,10081,10082
10083,10084,10085,10086,10087,10088,10089,10090,10091,10092,10093,10094,10095,10096,10097,10098
10099,10100,10101,10102,10103,10104,10105,10106,10107,10108,10109,10110,10111,10112,10113,10114
10115,10116,10117,10118,10119,10120,10121,10122,10123,10124,10125,10126,10127,10128,10129,10130
10131,10132,10133,10134,10135,10136,10137,10138,10139,10140,10141,10142,10143,10144,10145,10146
10147,10148,10149,10150,10151,10152,10153,10154,10155,10156,10157,10158,10159,10160,10161,10162
10163,10164,10165,10166,10167,10168,20051,20052,20053,20054,20055,20056,20057,20058,20059,20060
20061,20062,20063,20064,20065,20066,20067,20068,20069,20070,20071,20072,20073,20074,20075,20076
20077,20078,20079,20080,20081,20082,20083,20084,20085,20086,20087,20088,20089,20090,20091,20092
20093,20094,20095,20096,20097,20098,20099,20100,20101,20102,20103,20104,20105,20106,20107,20108
20109,20110,20111,20112,20113,20114,20115,20116,20117,20118,20119,20120,20121,20122,20123,20124
20125,20126,20127,20128,20129,20130,20131,20132,20133,20134,20135,20136,20137,20138,20139,20140
20141,20142,20143,20144,20145,20146,20147,20148,20149,20150,20151,20152,20153,20154,20155,20156
20157,20158,20159,20160,20161,20162,20163,20164,20165,20166,20167,20168
**
**
*BEAM GENERAL SECTION, ELSET=CABLE_MAIN, SECTION=GENERAL, DENSITY=7850.000
6.00000e-01, 2.86479e-04, 0.00000e+00, 2.86479e-04, 5.72958e-04
0.000, 1.000, 0.000
2.00000e+11, 8.00000e+10
*BEAM GENERAL SECTION, ELSET=CABLE_TEMPSUPPORT, SECTION=GENERAL, DENSITY=0.000
1.00000e-01, 1.00000e+00, 0.00000e+00, 1.00000e+00, 1.00000e+00
1.000, 0.000, 0.000
2.10000e+13, 8.10000e+12
***********************************************************
** TOWER
***********************************************************
*ELSET, ELSET=TOWER_SOUTH_CS_001
100001,110001
**
**
*ELSET, ELSET=TOWER_SOUTH_CS_002
100002,110002
**
**
*ELSET, ELSET=TOWER_SOUTH_CS_003
100003,110003
**
**
*ELSET, ELSET=TOWER_SOUTH_CS_004
100004,110004
**
**
*ELSET, ELSET=TOWER_SOUTH_CS_005
100005,110005
**
**
*ELSET, ELSET=TOWER_SOUTH_CS_006
100006,110006
**
**
*ELSET, ELSET=TOWER_SOUTH_CS_007
100007,110007
**
**
*ELSET, ELSET=TOWER_SOUTH_CS_008
100008,110008
**
**
*ELSET, ELSET=TOWER_SOUTH_CS_009
100009,110009
**
**
*ELSET, ELSET=TOWER_SOUTH_CS_010
100010,110010
**
**
*ELSET, ELSET=TOWER_SOUTH_CS_011
100011,110011
**
**
*ELSET, ELSET=TOWER_SOUTH_CS_012
100012,110012
**
**
*ELSET, ELSET=TOWER_SOUTH_CS_013
100013,110013
**
**
*ELSET, ELSET=TOWER_SOUTH_CS_014
100014,110014
**
**
*ELSET, ELSET=TOWER_SOUTH_CS_015
100015,110015
**
**
*ELSET, ELSET=TOWER_SOUTH_CS_016
100016,110016
**
**
*ELSET, ELSET=TOWER_SOUTH_CS_017
100017,110017
**
**
*ELSET, ELSET=TOWER_SOUTH_CS_018
100018,110018
**
**
*ELSET, ELSET=TOWER_SOUTH_CS_019
100019,110019
**
**
*ELSET, ELSET=TOWER_SOUTH_CS_020
100020,110020
**
**
*ELSET, ELSET=TOWER_SOUTH_CS_021
100021,110021
**
**
*ELSET, ELSET=TOWER_SOUTH_CS_022
100022,110022
**
**
*ELSET, ELSET=TOWER_SOUTH_CS_023
100023,110023
**
**
*ELSET, ELSET=TOWER_SOUTH_CS_024
100024,110024
**
**
*ELSET, ELSET=TOWER_SOUTH_CS_025
100025,110025
**
**
*ELSET, ELSET=TOWER_SOUTH_CS_026
100026,110026
**
**
*ELSET, ELSET=TOWER_SOUTH_CS_027
100027,110027
**
**
*ELSET, ELSET=TOWER_SOUTH_CS_028
100028,110028
**
**
*ELSET, ELSET=TOWER_SOUTH_CS_029
100029,110029
**
**
*ELSET, ELSET=TOWER_SOUTH_CS_030
100030,110030
**
**
*ELSET, ELSET=TOWER_SOUTH_CS_031
100031,110031
**
**
*ELSET, ELSET=TOWER_SOUTH_CS_032
100032,110032
**
**
*ELSET, ELSET=TOWER_SOUTH_CS_033
100033,110033
**
**
*ELSET, ELSET=TOWER_SOUTH_CS_034
100034,110034
**
**
*ELSET, ELSET=TOWER_SOUTH_CS_035
100035,110035
**
**
*ELSET, ELSET=TOWER_SOUTH_CS_036
100036,110036
**
**
*ELSET, ELSET=TOWER_SOUTH_CS_037
100037,110037
**
**
*ELSET, ELSET=TOWER_SOUTH_CS_038
100038,110038
**
**
*ELSET, ELSET=TOWER_SOUTH_CS_039
100039,110039
**
**
*ELSET, ELSET=TOWER_SOUTH_CS_040
100040,110040
**
**
*ELSET, ELSET=TOWER_SOUTH_CS_041
100041,110041
**
**
*ELSET, ELSET=TOWER_SOUTH_CS_042
100042,110042
**
**
*ELSET, ELSET=TOWER_SOUTH_CS_043
100043,110043
**
**
*ELSET, ELSET=TOWER_SOUTH_CS_044
100044,110044
**
**
*ELSET, ELSET=TOWER_SOUTH_CS_045
100045,110045
**
**
*ELSET, ELSET=TOWER_SOUTH_CS_046
100046,110046
**
**
*ELSET, ELSET=TOWER_SOUTH_CS_047
100047,110047
**
**
*ELSET, ELSET=TOWER_SOUTH_CS_048
100048,110048
**
**
*ELSET, ELSET=TOWER_SOUTH_CS_049
100049,110049
**
**
*ELSET, ELSET=TOWER_SOUTH_CS_050
100050,110050
**
**
*ELSET, ELSET=TOWER_SOUTH_CS_051
100051,110051
**
**
*ELSET, ELSET=TOWER_SOUTH_CS_052
100052,110052
**
**
*ELSET, ELSET=TOWER_SOUTH_CS_053
100053,110053
**
**
*ELSET, ELSET=TOWER_SOUTH_CS_054
100054,110054
**
**
*ELSET, ELSET=TOWER_SOUTH_CS_055
100055,110055
**
**
*ELSET, ELSET=TOWER_SOUTH_CS_056
100056,110056
**
**
*ELSET, ELSET=TOWER_SOUTH_CS_057
100057,110057
**
**
*ELSET, ELSET=TOWER_SOUTH_CS_058
100058,110058
**
**
*ELSET, ELSET=TOWER_SOUTH_CS_059
100059,110059
**
**
*ELSET, ELSET=TOWER_SOUTH_CS_060
100060,110060
**
**
*ELSET, ELSET=TOWER_SOUTH_CS_061
100061,110061
**
**
*ELSET, ELSET=TOWER_SOUTH_CS_062
100062,110062
**
**
*ELSET, ELSET=TOWER_SOUTH_CS_063
100063,110063
**
**
*ELSET, ELSET=TOWER_SOUTH_CS_064
100064,110064
**
**
*ELSET, ELSET=TOWER_SOUTH_CS_065
100065,110065
**
**
*ELSET, ELSET=TOWER_SOUTH_CS_066
100066,110066
**
**
*ELSET, ELSET=TOWER_SOUTH_CS_067
100067,110067
**
**
*ELSET, ELSET=TOWER_SOUTH_CS_068
100068,110068
**
**
*ELSET, ELSET=TOWER_SOUTH_CS_069
100069,110069
**
**
*ELSET, ELSET=TOWER_SOUTH_CS_070
100070,110070
**
**
*ELSET, ELSET=TOWER_SOUTH_CS_071
100071,110071
**
**
*ELSET, ELSET=TOWER_SOUTH_CS_072
100072,110072
**
**
*ELSET, ELSET=TOWER_SOUTH_CS_073
100073,110073
**
**
*ELSET, ELSET=TOWER_SOUTH_CS_074
100074,110074
**
**
*ELSET, ELSET=TOWER_NORTH_CS_001
200001,210001
**
**
*ELSET, ELSET=TOWER_NORTH_CS_002
200002,210002
**
**
*ELSET, ELSET=TOWER_NORTH_CS_003
200003,210003
**
**
*ELSET, ELSET=TOWER_NORTH_CS_004
200004,210004
**
**
*ELSET, ELSET=TOWER_NORTH_CS_005
200005,210005
**
**
*ELSET, ELSET=TOWER_NORTH_CS_006
200006,210006
**
**
*ELSET, ELSET=TOWER_NORTH_CS_007
200007,210007
**
**
*ELSET, ELSET=TOWER_NORTH_CS_008
200008,210008
**
**
*ELSET, ELSET=TOWER_NORTH_CS_009
200009,210009
**
**
*ELSET, ELSET=TOWER_NORTH_CS_010
200010,210010
**
**
*ELSET, ELSET=TOWER_NORTH_CS_011
200011,210011
**
**
*ELSET, ELSET=TOWER_NORTH_CS_012
200012,210012
**
**
*ELSET, ELSET=TOWER_NORTH_CS_013
200013,210013
**
**
*ELSET, ELSET=TOWER_NORTH_CS_014
200014,210014
**
**
*ELSET, ELSET=TOWER_NORTH_CS_015
200015,210015
**
**
*ELSET, ELSET=TOWER_NORTH_CS_016
200016,210016
**
**
*ELSET, ELSET=TOWER_NORTH_CS_017
200017,210017
**
**
*ELSET, ELSET=TOWER_NORTH_CS_018
200018,210018
**
**
*ELSET, ELSET=TOWER_NORTH_CS_019
200019,210019
**
**
*ELSET, ELSET=TOWER_NORTH_CS_020
200020,210020
**
**
*ELSET, ELSET=TOWER_NORTH_CS_021
200021,210021
**
**
*ELSET, ELSET=TOWER_NORTH_CS_022
200022,210022
**
**
*ELSET, ELSET=TOWER_NORTH_CS_023
200023,210023
**
**
*ELSET, ELSET=TOWER_NORTH_CS_024
200024,210024
**
**
*ELSET, ELSET=TOWER_NORTH_CS_025
200025,210025
**
**
*ELSET, ELSET=TOWER_NORTH_CS_026
200026,210026
**
**
*ELSET, ELSET=TOWER_NORTH_CS_027
200027,210027
**
**
*ELSET, ELSET=TOWER_NORTH_CS_028
200028,210028
**
**
*ELSET, ELSET=TOWER_NORTH_CS_029
200029,210029
**
**
*ELSET, ELSET=TOWER_NORTH_CS_030
200030,210030
**
**
*ELSET, ELSET=TOWER_NORTH_CS_031
200031,210031
**
**
*ELSET, ELSET=TOWER_NORTH_CS_032
200032,210032
**
**
*ELSET, ELSET=TOWER_NORTH_CS_033
200033,210033
**
**
*ELSET, ELSET=TOWER_NORTH_CS_034
200034,210034
**
**
*ELSET, ELSET=TOWER_NORTH_CS_035
200035,210035
**
**
*ELSET, ELSET=TOWER_NORTH_CS_036
200036,210036
**
**
*ELSET, ELSET=TOWER_NORTH_CS_037
200037,210037
**
**
*ELSET, ELSET=TOWER_NORTH_CS_038
200038,210038
**
**
*ELSET, ELSET=TOWER_NORTH_CS_039
200039,210039
**
**
*ELSET, ELSET=TOWER_NORTH_CS_040
200040,210040
**
**
*ELSET, ELSET=TOWER_NORTH_CS_041
200041,210041
**
**
*ELSET, ELSET=TOWER_NORTH_CS_042
200042,210042
**
**
*ELSET, ELSET=TOWER_NORTH_CS_043
200043,210043
**
**
*ELSET, ELSET=TOWER_NORTH_CS_044
200044,210044
**
**
*ELSET, ELSET=TOWER_NORTH_CS_045
200045,210045
**
**
*ELSET, ELSET=TOWER_NORTH_CS_046
200046,210046
**
**
*ELSET, ELSET=TOWER_NORTH_CS_047
200047,210047
**
**
*ELSET, ELSET=TOWER_NORTH_CS_048
200048,210048
**
**
*ELSET, ELSET=TOWER_NORTH_CS_049
200049,210049
**
**
*ELSET, ELSET=TOWER_NORTH_CS_050
200050,210050
**
**
*ELSET, ELSET=TOWER_NORTH_CS_051
200051,210051
**
**
*ELSET, ELSET=TOWER_NORTH_CS_052
200052,210052
**
**
*ELSET, ELSET=TOWER_NORTH_CS_053
200053,210053
**
**
*ELSET, ELSET=TOWER_NORTH_CS_054
200054,210054
**
**
*ELSET, ELSET=TOWER_NORTH_CS_055
200055,210055
**
**
*ELSET, ELSET=TOWER_NORTH_CS_056
200056,210056
**
**
*ELSET, ELSET=TOWER_NORTH_CS_057
200057,210057
**
**
*ELSET, ELSET=TOWER_NORTH_CS_058
200058,210058
**
**
*ELSET, ELSET=TOWER_NORTH_CS_059
200059,210059
**
**
*ELSET, ELSET=TOWER_NORTH_CS_060
200060,210060
**
**
*ELSET, ELSET=TOWER_NORTH_CS_061
200061,210061
**
**
*ELSET, ELSET=TOWER_NORTH_CS_062
200062,210062
**
**
*ELSET, ELSET=TOWER_NORTH_CS_063
200063,210063
**
**
*ELSET, ELSET=TOWER_NORTH_CS_064
200064,210064
**
**
*ELSET, ELSET=TOWER_NORTH_CS_065
200065,210065
**
**
*ELSET, ELSET=TOWER_NORTH_CS_066
200066,210066
**
**
*ELSET, ELSET=TOWER_NORTH_CS_067
200067,210067
**
**
*ELSET, ELSET=TOWER_NORTH_CS_068
200068,210068
**
**
*ELSET, ELSET=TOWER_NORTH_CS_069
200069,210069
**
**
*ELSET, ELSET=TOWER_NORTH_CS_070
200070,210070
**
**
*ELSET, ELSET=TOWER_NORTH_CS_071
200071,210071
**
**
*ELSET, ELSET=TOWER_NORTH_CS_072
200072,210072
**
**
*ELSET, ELSET=TOWER_NORTH_CS_073
200073,210073
**
**
*ELSET, ELSET=TOWER_NORTH_CS_074
200074,210074
**
**
*NODE,NSET=TOWER_LEG_SOUTH_EAST
100001,-1400.00000,-26.00000,30.00000
100002,-1400.00000,-25.96622,35.00000
100003,-1400.00000,-25.93243,40.00000
100004,-1400.00000,-25.89865,45.00000
100005,-1400.00000,-25.86486,50.00000
100006,-1400.00000,-25.83108,55.00000
100007,-1400.00000,-25.79730,60.00000
100008,-1400.00000,-25.76351,65.00000
100009,-1400.00000,-25.72973,70.00000
100010,-1400.00000,-25.69595,75.00000
100011,-1400.00000,-25.66216,80.00000
100012,-1400.00000,-25.62838,85.00000
100013,-1400.00000,-25.59459,90.00000
100014,-1400.00000,-25.56081,95.00000
100015,-1400.00000,-25.52703,100.00000
100016,-1400.00000,-25.49324,105.00000
100017,-1400.00000,-25.45946,110.00000
100018,-1400.00000,-25.42568,115.00000
100019,-1400.00000,-25.39189,120.00000
100020,-1400.00000,-25.35811,125.00000
** ... 55 like lines cut
**
**
*NODE,NSET=TOWER_LEG_SOUTH_WEST
110001,-1400.00000,26.00000,30.00000
110002,-1400.00000,25.96622,35.00000
110003,-1400.00000,25.93243,40.00000
110004,-1400.00000,25.89865,45.00000
110005,-1400.00000,25.86486,50.00000
110006,-1400.00000,25.83108,55.00000
110007,-1400.00000,25.79730,60.00000
110008,-1400.00000,25.76351,65.00000
110009,-1400.00000,25.72973,70.00000
110010,-1400.00000,25.69595,75.00000
110011,-1400.00000,25.66216,80.00000
110012,-1400.00000,25.62838,85.00000
110013,-1400.00000,25.59459,90.00000
110014,-1400.00000,25.56081,95.00000
110015,-1400.00000,25.52703,100.00000
110016,-1400.00000,25.49324,105.00000
110017,-1400.00000,25.45946,110.00000
110018,-1400.00000,25.42568,115.00000
110019,-1400.00000,25.39189,120.00000
110020,-1400.00000,25.35811,125.00000
** ... 55 like lines cut
**
**
*NODE,NSET=TOWER_LEG_NORTH_EAST
200001,1400.00000,-26.00000,30.00000
200002,1400.00000,-25.96622,35.00000
200003,1400.00000,-25.93243,40.00000
200004,1400.00000,-25.89865,45.00000
200005,1400.00000,-25.86486,50.00000
200006,1400.00000,-25.83108,55.00000
200007,1400.00000,-25.79730,60.00000
200008,1400.00000,-25.76351,65.00000
200009,1400.00000,-25.72973,70.00000
200010,1400.00000,-25.69595,75.00000
200011,1400.00000,-25.66216,80.00000
200012,1400.00000,-25.62838,85.00000
200013,1400.00000,-25.59459,90.00000
200014,1400.00000,-25.56081,95.00000
200015,1400.00000,-25.52703,100.00000
200016,1400.00000,-25.49324,105.00000
200017,1400.00000,-25.45946,110.00000
200018,1400.00000,-25.42568,115.00000
200019,1400.00000,-25.39189,120.00000
200020,1400.00000,-25.35811,125.00000
** ... 55 like lines cut
**
**
*NODE,NSET=TOWER_LEG_NORTH_WEST
210001,1400.00000,26.00000,30.00000
210002,1400.00000,25.96622,35.00000
210003,1400.00000,25.93243,40.00000
210004,1400.00000,25.89865,45.00000
210005,1400.00000,25.86486,50.00000
210006,1400.00000,25.83108,55.00000
210007,1400.00000,25.79730,60.00000
210008,1400.00000,25.76351,65.00000
210009,1400.00000,25.72973,70.00000
210010,1400.00000,25.69595,75.00000
210011,1400.00000,25.66216,80.00000
210012,1400.00000,25.62838,85.00000
210013,1400.00000,25.59459,90.00000
210014,1400.00000,25.56081,95.00000
210015,1400.00000,25.52703,100.00000
210016,1400.00000,25.49324,105.00000
210017,1400.00000,25.45946,110.00000
210018,1400.00000,25.42568,115.00000
210019,1400.00000,25.39189,120.00000
210020,1400.00000,25.35811,125.00000
** ... 55 like lines cut
**
**
*NODE,NSET=TOWER_CROSSBEAM_SOUTH_1
101001,-1400.00000,-20.50000,51.50000
101002,-1400.00000,-20.32140,51.50000
101003,-1400.00000,-14.98700,51.50000
101004,-1400.00000,-9.50000,51.50000
101005,-1400.00000,9.50000,51.50000
101006,-1400.00000,14.98700,51.50000
101007,-1400.00000,20.32140,51.50000
101008,-1400.00000,20.50000,51.50000
**
**
*NODE,NSET=TOWER_CROSSBEAM_SOUTH_2
101101,-1400.00000,-20.50542,175.50000
101102,-1400.00000,-10.25271,175.50000
101103,-1400.00000,0.00000,175.50000
101104,-1400.00000,10.25271,175.50000
101105,-1400.00000,20.50542,175.50000
**
**
*NODE,NSET=TOWER_CROSSBEAM_SOUTH_3
101201,-1400.00000,-20.19859,245.50000
101202,-1400.00000,-10.09929,245.50000
101203,-1400.00000,0.00000,245.50000
101204,-1400.00000,10.09929,245.50000
101205,-1400.00000,20.19859,245.50000
**
**
*NODE,NSET=TOWER_CROSSBEAM_SOUTH_4
101301,-1400.00000,-19.89175,315.50000
101302,-1400.00000,-9.94588,315.50000
101303,-1400.00000,0.00000,315.50000
101304,-1400.00000,9.94588,315.50000
101305,-1400.00000,19.89175,315.50000
**
**
*NODE,NSET=TOWER_CROSSBEAM_SOUTH_5
101401,-1400.00000,-19.58492,385.50000
101402,-1400.00000,-9.79246,385.50000
101403,-1400.00000,0.00000,385.50000
101404,-1400.00000,9.79246,385.50000
101405,-1400.00000,19.58492,385.50000
**
**
*NODE,NSET=TOWER_CROSSBEAM_NORTH_1
201001,1400.00000,-20.50000,51.50000
201002,1400.00000,-20.32140,51.50000
201003,1400.00000,-14.98700,51.50000
201004,1400.00000,-9.50000,51.50000
201005,1400.00000,9.50000,51.50000
201006,1400.00000,14.98700,51.50000
201007,1400.00000,20.32140,51.50000
201008,1400.00000,20.50000,51.50000
**
**
*NODE,NSET=TOWER_CROSSBEAM_NORTH_2
201101,1400.00000,-20.50542,175.50000
201102,1400.00000,-10.25271,175.50000
201103,1400.00000,0.00000,175.50000
201104,1400.00000,10.25271,175.50000
201105,1400.00000,20.50542,175.50000
**
**
*NODE,NSET=TOWER_CROSSBEAM_NORTH_3
201201,1400.00000,-20.19859,245.50000
201202,1400.00000,-10.09929,245.50000
201203,1400.00000,0.00000,245.50000
201204,1400.00000,10.09929,245.50000
201205,1400.00000,20.19859,245.50000
**
**
*NODE,NSET=TOWER_CROSSBEAM_NORTH_4
201301,1400.00000,-19.89175,315.50000
201302,1400.00000,-9.94588,315.50000
201303,1400.00000,0.00000,315.50000
201304,1400.00000,9.94588,315.50000
201305,1400.00000,19.89175,315.50000
**
**
*NODE,NSET=TOWER_CROSSBEAM_NORTH_5
201401,1400.00000,-19.58492,385.50000
201402,1400.00000,-9.79246,385.50000
201403,1400.00000,0.00000,385.50000
201404,1400.00000,9.79246,385.50000
201405,1400.00000,19.58492,385.50000
**
**
*ELEMENT, TYPE=B31, ELSET=TOWER_LEG_SOUTH_EAST
100001, 100001, 100002
100002, 100002, 100003
100003, 100003, 100004
100004, 100004, 100005
100005, 100005, 100006
100006, 100006, 100007
100007, 100007, 100008
100008, 100008, 100009
100009, 100009, 100010
100010, 100010, 100011
100011, 100011, 100012
100012, 100012, 100013
100013, 100013, 100014
100014, 100014, 100015
100015, 100015, 100016
100016, 100016, 100017
100017, 100017, 100018
100018, 100018, 100019
100019, 100019, 100020
100020, 100020, 100021
** ... 54 like lines cut
**
**
*ELEMENT, TYPE=B31, ELSET=TOWER_LEG_SOUTH_WEST
110001, 110001, 110002
110002, 110002, 110003
110003, 110003, 110004
110004, 110004, 110005
110005, 110005, 110006
110006, 110006, 110007
110007, 110007, 110008
110008, 110008, 110009
110009, 110009, 110010
110010, 110010, 110011
110011, 110011, 110012
110012, 110012, 110013
110013, 110013, 110014
110014, 110014, 110015
110015, 110015, 110016
110016, 110016, 110017
110017, 110017, 110018
110018, 110018, 110019
110019, 110019, 110020
110020, 110020, 110021
** ... 54 like lines cut
**
**
*ELEMENT, TYPE=B31, ELSET=TOWER_LEG_NORTH_EAST
200001, 200001, 200002
200002, 200002, 200003
200003, 200003, 200004
200004, 200004, 200005
200005, 200005, 200006
200006, 200006, 200007
200007, 200007, 200008
200008, 200008, 200009
200009, 200009, 200010
200010, 200010, 200011
200011, 200011, 200012
200012, 200012, 200013
200013, 200013, 200014
200014, 200014, 200015
200015, 200015, 200016
200016, 200016, 200017
200017, 200017, 200018
200018, 200018, 200019
200019, 200019, 200020
200020, 200020, 200021
** ... 54 like lines cut
**
**
*ELEMENT, TYPE=B31, ELSET=TOWER_LEG_NORTH_WEST
210001, 210001, 210002
210002, 210002, 210003
210003, 210003, 210004
210004, 210004, 210005
210005, 210005, 210006
210006, 210006, 210007
210007, 210007, 210008
210008, 210008, 210009
210009, 210009, 210010
210010, 210010, 210011
210011, 210011, 210012
210012, 210012, 210013
210013, 210013, 210014
210014, 210014, 210015
210015, 210015, 210016
210016, 210016, 210017
210017, 210017, 210018
210018, 210018, 210019
210019, 210019, 210020
210020, 210020, 210021
** ... 54 like lines cut
**
**
*ELEMENT, TYPE=B31, ELSET=TOWER_CROSSBEAM_SOUTH _1
101001, 101001, 101002
101002, 101002, 101003
101003, 101003, 101004
101004, 101004, 101005
101005, 101005, 101006
101006, 101006, 101007
101007, 101007, 101008
**
**
*ELEMENT, TYPE=B31, ELSET=TOWER_CROSSBEAM_SOUTH _2
101101, 101101, 101102
101102, 101102, 101103
101103, 101103, 101104
101104, 101104, 101105
**
**
*ELEMENT, TYPE=B31, ELSET=TOWER_CROSSBEAM_SOUTH _3
101201, 101201, 101202
101202, 101202, 101203
101203, 101203, 101204
101204, 101204, 101205
**
**
*ELEMENT, TYPE=B31, ELSET=TOWER_CROSSBEAM_SOUTH _4
101301, 101301, 101302
101302, 101302, 101303
101303, 101303, 101304
101304, 101304, 101305
**
**
*ELEMENT, TYPE=B31, ELSET=TOWER_CROSSBEAM_SOUTH _5
101401, 101401, 101402
101402, 101402, 101403
101403, 101403, 101404
101404, 101404, 101405
**
**
*ELEMENT, TYPE=B31, ELSET=TOWER_CROSSBEAM_NORTH _1
201001, 201001, 201002
201002, 201002, 201003
201003, 201003, 201004
201004, 201004, 201005
201005, 201005, 201006
201006, 201006, 201007
201007, 201007, 201008
**
**
*ELEMENT, TYPE=B31, ELSET=TOWER_CROSSBEAM_NORTH _2
201101, 201101, 201102
201102, 201102, 201103
201103, 201103, 201104
201104, 201104, 201105
**
**
*ELEMENT, TYPE=B31, ELSET=TOWER_CROSSBEAM_NORTH _3
201201, 201201, 201202
201202, 201202, 201203
201203, 201203, 201204
201204, 201204, 201205
**
**
*ELEMENT, TYPE=B31, ELSET=TOWER_CROSSBEAM_NORTH _4
201301, 201301, 201302
201302, 201302, 201303
201303, 201303, 201304
201304, 201304, 201305
**
**
*ELEMENT, TYPE=B31, ELSET=TOWER_CROSSBEAM_NORTH _5
201401, 201401, 201402
201402, 201402, 201403
201403, 201403, 201404
201404, 201404, 201405
**
**
*NSET, NSET=TOWER_LEG
TOWER_LEG_SOUTH_EAST
TOWER_LEG_SOUTH_WEST
TOWER_LEG_NORTH_EAST
TOWER_LEG_NORTH_WEST
**
**
*NSET, NSET=TOWER_BASE
100001,110001,200001,210001
**
**
*NSET, NSET=TOWER_TOP_SOUTH_EAST
100075
**
**
*NSET, NSET=TOWER_TOP_SOUTH_WEST
110075
**
**
*NSET, NSET=TOWER_TOP_NORTH_EAST
200075
**
**
*NSET, NSET=TOWER_TOP_NORTH_WEST
210075
**
**
*NSET, NSET=TOWER_CROSSBEAM_SOUTH_1_START
101001
**
**
*NSET, NSET=TOWER_CROSSBEAM_SOUTH_1_END
101008
**
**
*NSET, NSET=TOWER_CROSSBEAM_SOUTH_2_START
101101
**
**
*NSET, NSET=TOWER_CROSSBEAM_SOUTH_2_END
101105
**
**
*NSET, NSET=TOWER_CROSSBEAM_SOUTH_3_START
101201
**
**
*NSET, NSET=TOWER_CROSSBEAM_SOUTH_3_END
101205
**
**
*NSET, NSET=TOWER_CROSSBEAM_SOUTH_4_START
101301
**
**
*NSET, NSET=TOWER_CROSSBEAM_SOUTH_4_END
101305
**
**
*NSET, NSET=TOWER_CROSSBEAM_SOUTH_5_START
101401
**
**
*NSET, NSET=TOWER_CROSSBEAM_SOUTH_5_END
101405
**
**
*NSET, NSET=TOWER_CROSSBEAM_NORTH_1_START
201001
**
**
*NSET, NSET=TOWER_CROSSBEAM_NORTH_1_END
201008
**
**
*NSET, NSET=TOWER_CROSSBEAM_NORTH_2_START
201101
**
**
*NSET, NSET=TOWER_CROSSBEAM_NORTH_2_END
201105
**
**
*NSET, NSET=TOWER_CROSSBEAM_NORTH_3_START
201201
**
**
*NSET, NSET=TOWER_CROSSBEAM_NORTH_3_END
201205
**
**
*NSET, NSET=TOWER_CROSSBEAM_NORTH_4_START
201301
**
**
*NSET, NSET=TOWER_CROSSBEAM_NORTH_4_END
201305
**
**
*NSET, NSET=TOWER_CROSSBEAM_NORTH_5_START
201401
**
**
*NSET, NSET=TOWER_CROSSBEAM_NORTH_5_END
201405
**
**
*ELSET, ELSET=TOWER_LEG
TOWER_LEG_SOUTH_EAST
TOWER_LEG_SOUTH_WEST
TOWER_LEG_NORTH_EAST
TOWER_LEG_NORTH_WEST
**
**
*ELSET, ELSET=TOWER_CROSSBEAM
TOWER_CROSSBEAM_SOUTH_1
TOWER_CROSSBEAM_SOUTH_2
TOWER_CROSSBEAM_SOUTH_3
TOWER_CROSSBEAM_SOUTH_4
TOWER_CROSSBEAM_SOUTH_5
TOWER_CROSSBEAM_NORTH_1
TOWER_CROSSBEAM_NORTH_2
TOWER_CROSSBEAM_NORTH_3
TOWER_CROSSBEAM_NORTH_4
TOWER_CROSSBEAM_NORTH_5
**
**
*ELSET, ELSET=TOWER
TOWER_LEG
TOWER_CROSSBEAM
**
**
*BEAM SECTION, ELSET=TOWER_SOUTH_CS_001, MATERIAL=CONCRETE, SECTION=BOX
14.50000, 12.50000, 1.50000, 1.50000, 1.50000, 1.50000
0.000, 1.000, 0.000
**
*BEAM SECTION, ELSET=TOWER_NORTH_CS_001, MATERIAL=CONCRETE, SECTION=BOX
14.50000, 12.50000, 1.50000, 1.50000, 1.50000, 1.50000
0.000, 1.000, 0.000
**
*BEAM SECTION, ELSET=TOWER_SOUTH_CS_002, MATERIAL=CONCRETE, SECTION=BOX
14.05556, 12.16667, 1.50000, 1.50000, 1.50000, 1.50000
0.000, 1.000, 0.000
**
*BEAM SECTION, ELSET=TOWER_NORTH_CS_002, MATERIAL=CONCRETE, SECTION=BOX
14.05556, 12.16667, 1.50000, 1.50000, 1.50000, 1.50000
0.000, 1.000, 0.000
**
*BEAM SECTION, ELSET=TOWER_SOUTH_CS_003, MATERIAL=CONCRETE, SECTION=BOX
13.61111, 11.83333, 1.50000, 1.50000, 1.50000, 1.50000
0.000, 1.000, 0.000
**
*BEAM SECTION, ELSET=TOWER_NORTH_CS_003, MATERIAL=CONCRETE, SECTION=BOX
13.61111, 11.83333, 1.50000, 1.50000, 1.50000, 1.50000
0.000, 1.000, 0.000
**
*BEAM SECTION, ELSET=TOWER_SOUTH_CS_004, MATERIAL=CONCRETE, SECTION=BOX
13.16667, 11.50000, 1.50000, 1.50000, 1.50000, 1.50000
0.000, 1.000, 0.000
**
*BEAM SECTION, ELSET=TOWER_NORTH_CS_004, MATERIAL=CONCRETE, SECTION=BOX
13.16667, 11.50000, 1.50000, 1.50000, 1.50000, 1.50000
0.000, 1.000, 0.000
**
*BEAM SECTION, ELSET=TOWER_SOUTH_CS_005, MATERIAL=CONCRETE, SECTION=BOX
12.72222, 11.16667, 1.50000, 1.50000, 1.50000, 1.50000
0.000, 1.000, 0.000
**
*BEAM SECTION, ELSET=TOWER_NORTH_CS_005, MATERIAL=CONCRETE, SECTION=BOX
12.72222, 11.16667, 1.50000, 1.50000, 1.50000, 1.50000
0.000, 1.000, 0.000
**
*BEAM SECTION, ELSET=TOWER_SOUTH_CS_006, MATERIAL=CONCRETE, SECTION=BOX
12.27778, 10.83333, 1.50000, 1.50000, 1.50000, 1.50000
0.000, 1.000, 0.000
**
*BEAM SECTION, ELSET=TOWER_NORTH_CS_006, MATERIAL=CONCRETE, SECTION=BOX
12.27778, 10.83333, 1.50000, 1.50000, 1.50000, 1.50000
0.000, 1.000, 0.000
**
*BEAM SECTION, ELSET=TOWER_SOUTH_CS_007, MATERIAL=CONCRETE, SECTION=BOX
11.83333, 10.50000, 1.50000, 1.50000, 1.50000, 1.50000
0.000, 1.000, 0.000
**
*BEAM SECTION, ELSET=TOWER_NORTH_CS_007, MATERIAL=CONCRETE, SECTION=BOX
11.83333, 10.50000, 1.50000, 1.50000, 1.50000, 1.50000
0.000, 1.000, 0.000
**
*BEAM SECTION, ELSET=TOWER_SOUTH_CS_008, MATERIAL=CONCRETE, SECTION=BOX
11.38889, 10.16667, 1.50000, 1.50000, 1.50000, 1.50000
0.000, 1.000, 0.000
**
*BEAM SECTION, ELSET=TOWER_NORTH_CS_008, MATERIAL=CONCRETE, SECTION=BOX
11.38889, 10.16667, 1.50000, 1.50000, 1.50000, 1.50000
0.000, 1.000, 0.000
**
*BEAM SECTION, ELSET=TOWER_SOUTH_CS_009, MATERIAL=CONCRETE, SECTION=BOX
10.94444, 9.83333, 1.50000, 1.50000, 1.50000, 1.50000
0.000, 1.000, 0.000
**
*BEAM SECTION, ELSET=TOWER_NORTH_CS_009, MATERIAL=CONCRETE, SECTION=BOX
10.94444, 9.83333, 1.50000, 1.50000, 1.50000, 1.50000
0.000, 1.000, 0.000
**
*BEAM SECTION, ELSET=TOWER_SOUTH_CS_010, MATERIAL=CONCRETE, SECTION=BOX
10.50000, 9.50000, 1.50000, 1.50000, 1.50000, 1.50000
0.000, 1.000, 0.000
**
*BEAM SECTION, ELSET=TOWER_NORTH_CS_010, MATERIAL=CONCRETE, SECTION=BOX
10.50000, 9.50000, 1.50000, 1.50000, 1.50000, 1.50000
0.000, 1.000, 0.000
**
*BEAM SECTION, ELSET=TOWER_SOUTH_CS_011, MATERIAL=CONCRETE, SECTION=BOX
10.46835, 9.47627, 1.50000, 1.50000, 1.50000, 1.50000
0.000, 1.000, 0.000
**
*BEAM SECTION, ELSET=TOWER_NORTH_CS_011, MATERIAL=CONCRETE, SECTION=BOX
10.46835, 9.47627, 1.50000, 1.50000, 1.50000, 1.50000
0.000, 1.000, 0.000
**
*BEAM SECTION, ELSET=TOWER_SOUTH_CS_012, MATERIAL=CONCRETE, SECTION=BOX
10.43671, 9.45253, 1.50000, 1.50000, 1.50000, 1.50000
0.000, 1.000, 0.000
**
*BEAM SECTION, ELSET=TOWER_NORTH_CS_012, MATERIAL=CONCRETE, SECTION=BOX
10.43671, 9.45253, 1.50000, 1.50000, 1.50000, 1.50000
0.000, 1.000, 0.000
**
*BEAM SECTION, ELSET=TOWER_SOUTH_CS_013, MATERIAL=CONCRETE, SECTION=BOX
10.40506, 9.42880, 1.50000, 1.50000, 1.50000, 1.50000
0.000, 1.000, 0.000
**
*BEAM SECTION, ELSET=TOWER_NORTH_CS_013, MATERIAL=CONCRETE, SECTION=BOX
10.40506, 9.42880, 1.50000, 1.50000, 1.50000, 1.50000
0.000, 1.000, 0.000
**
*BEAM SECTION, ELSET=TOWER_SOUTH_CS_014, MATERIAL=CONCRETE, SECTION=BOX
10.37342, 9.40506, 1.50000, 1.50000, 1.50000, 1.50000
0.000, 1.000, 0.000
**
*BEAM SECTION, ELSET=TOWER_NORTH_CS_014, MATERIAL=CONCRETE, SECTION=BOX
10.37342, 9.40506, 1.50000, 1.50000, 1.50000, 1.50000
0.000, 1.000, 0.000
**
*BEAM SECTION, ELSET=TOWER_SOUTH_CS_015, MATERIAL=CONCRETE, SECTION=BOX
10.34177, 9.38133, 1.50000, 1.50000, 1.50000, 1.50000
0.000, 1.000, 0.000
**
*BEAM SECTION, ELSET=TOWER_NORTH_CS_015, MATERIAL=CONCRETE, SECTION=BOX
10.34177, 9.38133, 1.50000, 1.50000, 1.50000, 1.50000
0.000, 1.000, 0.000
**
*BEAM SECTION, ELSET=TOWER_SOUTH_CS_016, MATERIAL=CONCRETE, SECTION=BOX
10.31013, 9.35759, 1.50000, 1.50000, 1.50000, 1.50000
0.000, 1.000, 0.000
**
*BEAM SECTION, ELSET=TOWER_NORTH_CS_016, MATERIAL=CONCRETE, SECTION=BOX
10.31013, 9.35759, 1.50000, 1.50000, 1.50000, 1.50000
0.000, 1.000, 0.000
**
*BEAM SECTION, ELSET=TOWER_SOUTH_CS_017, MATERIAL=CONCRETE, SECTION=BOX
10.27848, 9.33386, 1.50000, 1.50000, 1.50000, 1.50000
0.000, 1.000, 0.000
**
*BEAM SECTION, ELSET=TOWER_NORTH_CS_017, MATERIAL=CONCRETE, SECTION=BOX
10.27848, 9.33386, 1.50000, 1.50000, 1.50000, 1.50000
0.000, 1.000, 0.000
**
*BEAM SECTION, ELSET=TOWER_SOUTH_CS_018, MATERIAL=CONCRETE, SECTION=BOX
10.24684, 9.31013, 1.50000, 1.50000, 1.50000, 1.50000
0.000, 1.000, 0.000
**
*BEAM SECTION, ELSET=TOWER_NORTH_CS_018, MATERIAL=CONCRETE, SECTION=BOX
10.24684, 9.31013, 1.50000, 1.50000, 1.50000, 1.50000
0.000, 1.000, 0.000
**
*BEAM SECTION, ELSET=TOWER_SOUTH_CS_019, MATERIAL=CONCRETE, SECTION=BOX
10.21519, 9.28639, 1.50000, 1.50000, 1.50000, 1.50000
0.000, 1.000, 0.000
**
*BEAM SECTION, ELSET=TOWER_NORTH_CS_019, MATERIAL=CONCRETE, SECTION=BOX
10.21519, 9.28639, 1.50000, 1.50000, 1.50000, 1.50000
0.000, 1.000, 0.000
**
*BEAM SECTION, ELSET=TOWER_SOUTH_CS_020, MATERIAL=CONCRETE, SECTION=BOX
10.18354, 9.26266, 1.50000, 1.50000, 1.50000, 1.50000
0.000, 1.000, 0.000
**
*BEAM SECTION, ELSET=TOWER_NORTH_CS_020, MATERIAL=CONCRETE, SECTION=BOX
10.18354, 9.26266, 1.50000, 1.50000, 1.50000, 1.50000
0.000, 1.000, 0.000
**
*BEAM SECTION, ELSET=TOWER_SOUTH_CS_021, MATERIAL=CONCRETE, SECTION=BOX
10.15190, 9.23892, 1.50000, 1.50000, 1.50000, 1.50000
0.000, 1.000, 0.000
**
*BEAM SECTION, ELSET=TOWER_NORTH_CS_021, MATERIAL=CONCRETE, SECTION=BOX
10.15190, 9.23892, 1.50000, 1.50000, 1.50000, 1.50000
0.000, 1.000, 0.000
**
*BEAM SECTION, ELSET=TOWER_SOUTH_CS_022, MATERIAL=CONCRETE, SECTION=BOX
10.12025, 9.21519, 1.50000, 1.50000, 1.50000, 1.50000
0.000, 1.000, 0.000
**
*BEAM SECTION, ELSET=TOWER_NORTH_CS_022, MATERIAL=CONCRETE, SECTION=BOX
10.12025, 9.21519, 1.50000, 1.50000, 1.50000, 1.50000
0.000, 1.000, 0.000
**
*BEAM SECTION, ELSET=TOWER_SOUTH_CS_023, MATERIAL=CONCRETE, SECTION=BOX
10.08861, 9.19146, 1.50000, 1.50000, 1.50000, 1.50000
0.000, 1.000, 0.000
**
*BEAM SECTION, ELSET=TOWER_NORTH_CS_023, MATERIAL=CONCRETE, SECTION=BOX
10.08861, 9.19146, 1.50000, 1.50000, 1.50000, 1.50000
0.000, 1.000, 0.000
**
*BEAM SECTION, ELSET=TOWER_SOUTH_CS_024, MATERIAL=CONCRETE, SECTION=BOX
10.05696, 9.16772, 1.50000, 1.50000, 1.50000, 1.50000
0.000, 1.000, 0.000
**
*BEAM SECTION, ELSET=TOWER_NORTH_CS_024, MATERIAL=CONCRETE, SECTION=BOX
10.05696, 9.16772, 1.50000, 1.50000, 1.50000, 1.50000
0.000, 1.000, 0.000
**
*BEAM SECTION, ELSET=TOWER_SOUTH_CS_025, MATERIAL=CONCRETE, SECTION=BOX
10.02532, 9.14399, 1.50000, 1.50000, 1.50000, 1.50000
0.000, 1.000, 0.000
**
*BEAM SECTION, ELSET=TOWER_NORTH_CS_025, MATERIAL=CONCRETE, SECTION=BOX
10.02532, 9.14399, 1.50000, 1.50000, 1.50000, 1.50000
0.000, 1.000, 0.000
**
*BEAM SECTION, ELSET=TOWER_SOUTH_CS_026, MATERIAL=CONCRETE, SECTION=BOX
9.99367, 9.12025, 1.50000, 1.50000, 1.50000, 1.50000
0.000, 1.000, 0.000
**
*BEAM SECTION, ELSET=TOWER_NORTH_CS_026, MATERIAL=CONCRETE, SECTION=BOX
9.99367, 9.12025, 1.50000, 1.50000, 1.50000, 1.50000
0.000, 1.000, 0.000
**
*BEAM SECTION, ELSET=TOWER_SOUTH_CS_027, MATERIAL=CONCRETE, SECTION=BOX
9.96203, 9.09652, 1.50000, 1.50000, 1.50000, 1.50000
0.000, 1.000, 0.000
**
*BEAM SECTION, ELSET=TOWER_NORTH_CS_027, MATERIAL=CONCRETE, SECTION=BOX
9.96203, 9.09652, 1.50000, 1.50000, 1.50000, 1.50000
0.000, 1.000, 0.000
**
*BEAM SECTION, ELSET=TOWER_SOUTH_CS_028, MATERIAL=CONCRETE, SECTION=BOX
9.93038, 9.07278, 1.50000, 1.50000, 1.50000, 1.50000
0.000, 1.000, 0.000
**
*BEAM SECTION, ELSET=TOWER_NORTH_CS_028, MATERIAL=CONCRETE, SECTION=BOX
9.93038, 9.07278, 1.50000, 1.50000, 1.50000, 1.50000
0.000, 1.000, 0.000
**
*BEAM SECTION, ELSET=TOWER_SOUTH_CS_029, MATERIAL=CONCRETE, SECTION=BOX
9.89873, 9.04905, 1.50000, 1.50000, 1.50000, 1.50000
0.000, 1.000, 0.000
**
*BEAM SECTION, ELSET=TOWER_NORTH_CS_029, MATERIAL=CONCRETE, SECTION=BOX
9.89873, 9.04905, 1.50000, 1.50000, 1.50000, 1.50000
0.000, 1.000, 0.000
**
*BEAM SECTION, ELSET=TOWER_SOUTH_CS_030, MATERIAL=CONCRETE, SECTION=BOX
9.86709, 9.02532, 1.50000, 1.50000, 1.50000, 1.50000
0.000, 1.000, 0.000
**
*BEAM SECTION, ELSET=TOWER_NORTH_CS_030, MATERIAL=CONCRETE, SECTION=BOX
9.86709, 9.02532, 1.50000, 1.50000, 1.50000, 1.50000
0.000, 1.000, 0.000
**
*BEAM SECTION, ELSET=TOWER_SOUTH_CS_031, MATERIAL=CONCRETE, SECTION=BOX
9.83544, 9.00158, 1.50000, 1.50000, 1.50000, 1.50000
0.000, 1.000, 0.000
**
*BEAM SECTION, ELSET=TOWER_NORTH_CS_031, MATERIAL=CONCRETE, SECTION=BOX
9.83544, 9.00158, 1.50000, 1.50000, 1.50000, 1.50000
0.000, 1.000, 0.000
**
*BEAM SECTION, ELSET=TOWER_SOUTH_CS_032, MATERIAL=CONCRETE, SECTION=BOX
9.80380, 8.97785, 1.50000, 1.50000, 1.50000, 1.50000
0.000, 1.000, 0.000
**
*BEAM SECTION, ELSET=TOWER_NORTH_CS_032, MATERIAL=CONCRETE, SECTION=BOX
9.80380, 8.97785, 1.50000, 1.50000, 1.50000, 1.50000
0.000, 1.000, 0.000
**
*BEAM SECTION, ELSET=TOWER_SOUTH_CS_033, MATERIAL=CONCRETE, SECTION=BOX
9.77215, 8.95411, 1.50000, 1.50000, 1.50000, 1.50000
0.000, 1.000, 0.000
**
*BEAM SECTION, ELSET=TOWER_NORTH_CS_033, MATERIAL=CONCRETE, SECTION=BOX
9.77215, 8.95411, 1.50000, 1.50000, 1.50000, 1.50000
0.000, 1.000, 0.000
**
*BEAM SECTION, ELSET=TOWER_SOUTH_CS_034, MATERIAL=CONCRETE, SECTION=BOX
9.74051, 8.93038, 1.50000, 1.50000, 1.50000, 1.50000
0.000, 1.000, 0.000
**
*BEAM SECTION, ELSET=TOWER_NORTH_CS_034, MATERIAL=CONCRETE, SECTION=BOX
9.74051, 8.93038, 1.50000, 1.50000, 1.50000, 1.50000
0.000, 1.000, 0.000
**
*BEAM SECTION, ELSET=TOWER_SOUTH_CS_035, MATERIAL=CONCRETE, SECTION=BOX
9.70886, 8.90665, 1.50000, 1.50000, 1.50000, 1.50000
0.000, 1.000, 0.000
**
*BEAM SECTION, ELSET=TOWER_NORTH_CS_035, MATERIAL=CONCRETE, SECTION=BOX
9.70886, 8.90665, 1.50000, 1.50000, 1.50000, 1.50000
0.000, 1.000, 0.000
**
*BEAM SECTION, ELSET=TOWER_SOUTH_CS_036, MATERIAL=CONCRETE, SECTION=BOX
9.67722, 8.88291, 1.50000, 1.50000, 1.50000, 1.50000
0.000, 1.000, 0.000
**
*BEAM SECTION, ELSET=TOWER_NORTH_CS_036, MATERIAL=CONCRETE, SECTION=BOX
9.67722, 8.88291, 1.50000, 1.50000, 1.50000, 1.50000
0.000, 1.000, 0.000
**
*BEAM SECTION, ELSET=TOWER_SOUTH_CS_037, MATERIAL=CONCRETE, SECTION=BOX
9.64557, 8.85918, 1.50000, 1.50000, 1.50000, 1.50000
0.000, 1.000, 0.000
**
*BEAM SECTION, ELSET=TOWER_NORTH_CS_037, MATERIAL=CONCRETE, SECTION=BOX
9.64557, 8.85918, 1.50000, 1.50000, 1.50000, 1.50000
0.000, 1.000, 0.000
**
*BEAM SECTION, ELSET=TOWER_SOUTH_CS_038, MATERIAL=CONCRETE, SECTION=BOX
9.61392, 8.83544, 1.50000, 1.50000, 1.50000, 1.50000
0.000, 1.000, 0.000
**
*BEAM SECTION, ELSET=TOWER_NORTH_CS_038, MATERIAL=CONCRETE, SECTION=BOX
9.61392, 8.83544, 1.50000, 1.50000, 1.50000, 1.50000
0.000, 1.000, 0.000
**
*BEAM SECTION, ELSET=TOWER_SOUTH_CS_039, MATERIAL=CONCRETE, SECTION=BOX
9.58228, 8.81171, 1.50000, 1.50000, 1.50000, 1.50000
0.000, 1.000, 0.000
**
*BEAM SECTION, ELSET=TOWER_NORTH_CS_039, MATERIAL=CONCRETE, SECTION=BOX
9.58228, 8.81171, 1.50000, 1.50000, 1.50000, 1.50000
0.000, 1.000, 0.000
**
*BEAM SECTION, ELSET=TOWER_SOUTH_CS_040, MATERIAL=CONCRETE, SECTION=BOX
9.55063, 8.78797, 1.50000, 1.50000, 1.50000, 1.50000
0.000, 1.000, 0.000
**
*BEAM SECTION, ELSET=TOWER_NORTH_CS_040, MATERIAL=CONCRETE, SECTION=BOX
9.55063, 8.78797, 1.50000, 1.50000, 1.50000, 1.50000
0.000, 1.000, 0.000
**
*BEAM SECTION, ELSET=TOWER_SOUTH_CS_041, MATERIAL=CONCRETE, SECTION=BOX
9.51899, 8.76424, 1.50000, 1.50000, 1.50000, 1.50000
0.000, 1.000, 0.000
**
*BEAM SECTION, ELSET=TOWER_NORTH_CS_041, MATERIAL=CONCRETE, SECTION=BOX
9.51899, 8.76424, 1.50000, 1.50000, 1.50000, 1.50000
0.000, 1.000, 0.000
**
*BEAM SECTION, ELSET=TOWER_SOUTH_CS_042, MATERIAL=CONCRETE, SECTION=BOX
9.48734, 8.74051, 1.50000, 1.50000, 1.50000, 1.50000
0.000, 1.000, 0.000
**
*BEAM SECTION, ELSET=TOWER_NORTH_CS_042, MATERIAL=CONCRETE, SECTION=BOX
9.48734, 8.74051, 1.50000, 1.50000, 1.50000, 1.50000
0.000, 1.000, 0.000
**
*BEAM SECTION, ELSET=TOWER_SOUTH_CS_043, MATERIAL=CONCRETE, SECTION=BOX
9.45570, 8.71677, 1.50000, 1.50000, 1.50000, 1.50000
0.000, 1.000, 0.000
**
*BEAM SECTION, ELSET=TOWER_NORTH_CS_043, MATERIAL=CONCRETE, SECTION=BOX
9.45570, 8.71677, 1.50000, 1.50000, 1.50000, 1.50000
0.000, 1.000, 0.000
**
*BEAM SECTION, ELSET=TOWER_SOUTH_CS_044, MATERIAL=CONCRETE, SECTION=BOX
9.42405, 8.69304, 1.50000, 1.50000, 1.50000, 1.50000
0.000, 1.000, 0.000
**
*BEAM SECTION, ELSET=TOWER_NORTH_CS_044, MATERIAL=CONCRETE, SECTION=BOX
9.42405, 8.69304, 1.50000, 1.50000, 1.50000, 1.50000
0.000, 1.000, 0.000
**
*BEAM SECTION, ELSET=TOWER_SOUTH_CS_045, MATERIAL=CONCRETE, SECTION=BOX
9.39241, 8.66930, 1.50000, 1.50000, 1.50000, 1.50000
0.000, 1.000, 0.000
**
*BEAM SECTION, ELSET=TOWER_NORTH_CS_045, MATERIAL=CONCRETE, SECTION=BOX
9.39241, 8.66930, 1.50000, 1.50000, 1.50000, 1.50000
0.000, 1.000, 0.000
**
*BEAM SECTION, ELSET=TOWER_SOUTH_CS_046, MATERIAL=CONCRETE, SECTION=BOX
9.36076, 8.64557, 1.50000, 1.50000, 1.50000, 1.50000
0.000, 1.000, 0.000
**
*BEAM SECTION, ELSET=TOWER_NORTH_CS_046, MATERIAL=CONCRETE, SECTION=BOX
9.36076, 8.64557, 1.50000, 1.50000, 1.50000, 1.50000
0.000, 1.000, 0.000
**
*BEAM SECTION, ELSET=TOWER_SOUTH_CS_047, MATERIAL=CONCRETE, SECTION=BOX
9.32911, 8.62184, 1.50000, 1.50000, 1.50000, 1.50000
0.000, 1.000, 0.000
**
*BEAM SECTION, ELSET=TOWER_NORTH_CS_047, MATERIAL=CONCRETE, SECTION=BOX
9.32911, 8.62184, 1.50000, 1.50000, 1.50000, 1.50000
0.000, 1.000, 0.000
**
*BEAM SECTION, ELSET=TOWER_SOUTH_CS_048, MATERIAL=CONCRETE, SECTION=BOX
9.29747, 8.59810, 1.50000, 1.50000, 1.50000, 1.50000
0.000, 1.000, 0.000
**
*BEAM SECTION, ELSET=TOWER_NORTH_CS_048, MATERIAL=CONCRETE, SECTION=BOX
9.29747, 8.59810, 1.50000, 1.50000, 1.50000, 1.50000
0.000, 1.000, 0.000
**
*BEAM SECTION, ELSET=TOWER_SOUTH_CS_049, MATERIAL=CONCRETE, SECTION=BOX
9.26582, 8.57437, 1.50000, 1.50000, 1.50000, 1.50000
0.000, 1.000, 0.000
**
*BEAM SECTION, ELSET=TOWER_NORTH_CS_049, MATERIAL=CONCRETE, SECTION=BOX
9.26582, 8.57437, 1.50000, 1.50000, 1.50000, 1.50000
0.000, 1.000, 0.000
**
*BEAM SECTION, ELSET=TOWER_SOUTH_CS_050, MATERIAL=CONCRETE, SECTION=BOX
9.23418, 8.55063, 1.50000, 1.50000, 1.50000, 1.50000
0.000, 1.000, 0.000
**
*BEAM SECTION, ELSET=TOWER_NORTH_CS_050, MATERIAL=CONCRETE, SECTION=BOX
9.23418, 8.55063, 1.50000, 1.50000, 1.50000, 1.50000
0.000, 1.000, 0.000
**
*BEAM SECTION, ELSET=TOWER_SOUTH_CS_051, MATERIAL=CONCRETE, SECTION=BOX
9.20253, 8.52690, 1.50000, 1.50000, 1.50000, 1.50000
0.000, 1.000, 0.000
**
*BEAM SECTION, ELSET=TOWER_NORTH_CS_051, MATERIAL=CONCRETE, SECTION=BOX
9.20253, 8.52690, 1.50000, 1.50000, 1.50000, 1.50000
0.000, 1.000, 0.000
**
*BEAM SECTION, ELSET=TOWER_SOUTH_CS_052, MATERIAL=CONCRETE, SECTION=BOX
9.17089, 8.50316, 1.50000, 1.50000, 1.50000, 1.50000
0.000, 1.000, 0.000
**
*BEAM SECTION, ELSET=TOWER_NORTH_CS_052, MATERIAL=CONCRETE, SECTION=BOX
9.17089, 8.50316, 1.50000, 1.50000, 1.50000, 1.50000
0.000, 1.000, 0.000
**
*BEAM SECTION, ELSET=TOWER_SOUTH_CS_053, MATERIAL=CONCRETE, SECTION=BOX
9.13924, 8.47943, 1.50000, 1.50000, 1.50000, 1.50000
0.000, 1.000, 0.000
**
*BEAM SECTION, ELSET=TOWER_NORTH_CS_053, MATERIAL=CONCRETE, SECTION=BOX
9.13924, 8.47943, 1.50000, 1.50000, 1.50000, 1.50000
0.000, 1.000, 0.000
**
*BEAM SECTION, ELSET=TOWER_SOUTH_CS_054, MATERIAL=CONCRETE, SECTION=BOX
9.10759, 8.45570, 1.50000, 1.50000, 1.50000, 1.50000
0.000, 1.000, 0.000
**
*BEAM SECTION, ELSET=TOWER_NORTH_CS_054, MATERIAL=CONCRETE, SECTION=BOX
9.10759, 8.45570, 1.50000, 1.50000, 1.50000, 1.50000
0.000, 1.000, 0.000
**
*BEAM SECTION, ELSET=TOWER_SOUTH_CS_055, MATERIAL=CONCRETE, SECTION=BOX
9.07595, 8.43196, 1.50000, 1.50000, 1.50000, 1.50000
0.000, 1.000, 0.000
**
*BEAM SECTION, ELSET=TOWER_NORTH_CS_055, MATERIAL=CONCRETE, SECTION=BOX
9.07595, 8.43196, 1.50000, 1.50000, 1.50000, 1.50000
0.000, 1.000, 0.000
**
*BEAM SECTION, ELSET=TOWER_SOUTH_CS_056, MATERIAL=CONCRETE, SECTION=BOX
9.04430, 8.40823, 1.50000, 1.50000, 1.50000, 1.50000
0.000, 1.000, 0.000
**
*BEAM SECTION, ELSET=TOWER_NORTH_CS_056, MATERIAL=CONCRETE, SECTION=BOX
9.04430, 8.40823, 1.50000, 1.50000, 1.50000, 1.50000
0.000, 1.000, 0.000
**
*BEAM SECTION, ELSET=TOWER_SOUTH_CS_057, MATERIAL=CONCRETE, SECTION=BOX
9.01266, 8.38449, 1.50000, 1.50000, 1.50000, 1.50000
0.000, 1.000, 0.000
**
*BEAM SECTION, ELSET=TOWER_NORTH_CS_057, MATERIAL=CONCRETE, SECTION=BOX
9.01266, 8.38449, 1.50000, 1.50000, 1.50000, 1.50000
0.000, 1.000, 0.000
**
*BEAM SECTION, ELSET=TOWER_SOUTH_CS_058, MATERIAL=CONCRETE, SECTION=BOX
8.98101, 8.36076, 1.50000, 1.50000, 1.50000, 1.50000
0.000, 1.000, 0.000
**
*BEAM SECTION, ELSET=TOWER_NORTH_CS_058, MATERIAL=CONCRETE, SECTION=BOX
8.98101, 8.36076, 1.50000, 1.50000, 1.50000, 1.50000
0.000, 1.000, 0.000
**
*BEAM SECTION, ELSET=TOWER_SOUTH_CS_059, MATERIAL=CONCRETE, SECTION=BOX
8.94937, 8.33703, 1.50000, 1.50000, 1.50000, 1.50000
0.000, 1.000, 0.000
**
*BEAM SECTION, ELSET=TOWER_NORTH_CS_059, MATERIAL=CONCRETE, SECTION=BOX
8.94937, 8.33703, 1.50000, 1.50000, 1.50000, 1.50000
0.000, 1.000, 0.000
**
*BEAM SECTION, ELSET=TOWER_SOUTH_CS_060, MATERIAL=CONCRETE, SECTION=BOX
8.91772, 8.31329, 1.50000, 1.50000, 1.50000, 1.50000
0.000, 1.000, 0.000
**
*BEAM SECTION, ELSET=TOWER_NORTH_CS_060, MATERIAL=CONCRETE, SECTION=BOX
8.91772, 8.31329, 1.50000, 1.50000, 1.50000, 1.50000
0.000, 1.000, 0.000
**
*BEAM SECTION, ELSET=TOWER_SOUTH_CS_061, MATERIAL=CONCRETE, SECTION=BOX
8.88608, 8.28956, 1.50000, 1.50000, 1.50000, 1.50000
0.000, 1.000, 0.000
**
*BEAM SECTION, ELSET=TOWER_NORTH_CS_061, MATERIAL=CONCRETE, SECTION=BOX
8.88608, 8.28956, 1.50000, 1.50000, 1.50000, 1.50000
0.000, 1.000, 0.000
**
*BEAM SECTION, ELSET=TOWER_SOUTH_CS_062, MATERIAL=CONCRETE, SECTION=BOX
8.85443, 8.26582, 1.50000, 1.50000, 1.50000, 1.50000
0.000, 1.000, 0.000
**
*BEAM SECTION, ELSET=TOWER_NORTH_CS_062, MATERIAL=CONCRETE, SECTION=BOX
8.85443, 8.26582, 1.50000, 1.50000, 1.50000, 1.50000
0.000, 1.000, 0.000
**
*BEAM SECTION, ELSET=TOWER_SOUTH_CS_063, MATERIAL=CONCRETE, SECTION=BOX
8.82278, 8.24209, 1.50000, 1.50000, 1.50000, 1.50000
0.000, 1.000, 0.000
**
*BEAM SECTION, ELSET=TOWER_NORTH_CS_063, MATERIAL=CONCRETE, SECTION=BOX
8.82278, 8.24209, 1.50000, 1.50000, 1.50000, 1.50000
0.000, 1.000, 0.000
**
*BEAM SECTION, ELSET=TOWER_SOUTH_CS_064, MATERIAL=CONCRETE, SECTION=BOX
8.79114, 8.21835, 1.50000, 1.50000, 1.50000, 1.50000
0.000, 1.000, 0.000
**
*BEAM SECTION, ELSET=TOWER_NORTH_CS_064, MATERIAL=CONCRETE, SECTION=BOX
8.79114, 8.21835, 1.50000, 1.50000, 1.50000, 1.50000
0.000, 1.000, 0.000
**
*BEAM SECTION, ELSET=TOWER_SOUTH_CS_065, MATERIAL=CONCRETE, SECTION=BOX
8.75949, 8.19462, 1.50000, 1.50000, 1.50000, 1.50000
0.000, 1.000, 0.000
**
*BEAM SECTION, ELSET=TOWER_NORTH_CS_065, MATERIAL=CONCRETE, SECTION=BOX
8.75949, 8.19462, 1.50000, 1.50000, 1.50000, 1.50000
0.000, 1.000, 0.000
**
*BEAM SECTION, ELSET=TOWER_SOUTH_CS_066, MATERIAL=CONCRETE, SECTION=BOX
8.72785, 8.17089, 1.50000, 1.50000, 1.50000, 1.50000
0.000, 1.000, 0.000
**
*BEAM SECTION, ELSET=TOWER_NORTH_CS_066, MATERIAL=CONCRETE, SECTION=BOX
8.72785, 8.17089, 1.50000, 1.50000, 1.50000, 1.50000
0.000, 1.000, 0.000
**
*BEAM SECTION, ELSET=TOWER_SOUTH_CS_067, MATERIAL=CONCRETE, SECTION=BOX
8.69620, 8.14715, 1.50000, 1.50000, 1.50000, 1.50000
0.000, 1.000, 0.000
**
*BEAM SECTION, ELSET=TOWER_NORTH_CS_067, MATERIAL=CONCRETE, SECTION=BOX
8.69620, 8.14715, 1.50000, 1.50000, 1.50000, 1.50000
0.000, 1.000, 0.000
**
*BEAM SECTION, ELSET=TOWER_SOUTH_CS_068, MATERIAL=CONCRETE, SECTION=BOX
8.66456, 8.12342, 1.50000, 1.50000, 1.50000, 1.50000
0.000, 1.000, 0.000
**
*BEAM SECTION, ELSET=TOWER_NORTH_CS_068, MATERIAL=CONCRETE, SECTION=BOX
8.66456, 8.12342, 1.50000, 1.50000, 1.50000, 1.50000
0.000, 1.000, 0.000
**
*BEAM SECTION, ELSET=TOWER_SOUTH_CS_069, MATERIAL=CONCRETE, SECTION=BOX
8.63291, 8.09968, 1.50000, 1.50000, 1.50000, 1.50000
0.000, 1.000, 0.000
**
*BEAM SECTION, ELSET=TOWER_NORTH_CS_069, MATERIAL=CONCRETE, SECTION=BOX
8.63291, 8.09968, 1.50000, 1.50000, 1.50000, 1.50000
0.000, 1.000, 0.000
**
*BEAM SECTION, ELSET=TOWER_SOUTH_CS_070, MATERIAL=CONCRETE, SECTION=BOX
8.60127, 8.07595, 1.50000, 1.50000, 1.50000, 1.50000
0.000, 1.000, 0.000
**
*BEAM SECTION, ELSET=TOWER_NORTH_CS_070, MATERIAL=CONCRETE, SECTION=BOX
8.60127, 8.07595, 1.50000, 1.50000, 1.50000, 1.50000
0.000, 1.000, 0.000
**
*BEAM SECTION, ELSET=TOWER_SOUTH_CS_071, MATERIAL=CONCRETE, SECTION=BOX
8.56962, 8.05222, 1.50000, 1.50000, 1.50000, 1.50000
0.000, 1.000, 0.000
**
*BEAM SECTION, ELSET=TOWER_NORTH_CS_071, MATERIAL=CONCRETE, SECTION=BOX
8.56962, 8.05222, 1.50000, 1.50000, 1.50000, 1.50000
0.000, 1.000, 0.000
**
*BEAM SECTION, ELSET=TOWER_SOUTH_CS_072, MATERIAL=CONCRETE, SECTION=BOX
8.53797, 8.02848, 1.50000, 1.50000, 1.50000, 1.50000
0.000, 1.000, 0.000
**
*BEAM SECTION, ELSET=TOWER_NORTH_CS_072, MATERIAL=CONCRETE, SECTION=BOX
8.53797, 8.02848, 1.50000, 1.50000, 1.50000, 1.50000
0.000, 1.000, 0.000
**
*BEAM SECTION, ELSET=TOWER_SOUTH_CS_073, MATERIAL=CONCRETE, SECTION=BOX
8.50633, 8.00475, 1.50000, 1.50000, 1.50000, 1.50000
0.000, 1.000, 0.000
**
*BEAM SECTION, ELSET=TOWER_NORTH_CS_073, MATERIAL=CONCRETE, SECTION=BOX
8.50633, 8.00475, 1.50000, 1.50000, 1.50000, 1.50000
0.000, 1.000, 0.000
**
*BEAM SECTION, ELSET=TOWER_SOUTH_CS_074, MATERIAL=CONCRETE, SECTION=BOX
8.50000, 8.00000, 1.50000, 1.50000, 1.50000, 1.50000
0.000, 1.000, 0.000
**
*BEAM SECTION, ELSET=TOWER_NORTH_CS_074, MATERIAL=CONCRETE, SECTION=BOX
8.50000, 8.00000, 1.50000, 1.50000, 1.50000, 1.50000
0.000, 1.000, 0.000
**
*BEAM SECTION, ELSET=TOWER_CROSSBEAM_SOUTH_1, MATERIAL=CONCRETE, SECTION=BOX
5.00000, 8.00000, 1.00000, 1.00000, 1.00000, 1.00000
1.000, 0.000, 0.000
*BEAM SECTION, ELSET=TOWER_CROSSBEAM_NORTH_1, MATERIAL=CONCRETE, SECTION=BOX
5.00000, 8.00000, 1.00000, 1.00000, 1.00000, 1.00000
1.000, 0.000, 0.000
**
*BEAM SECTION, ELSET=TOWER_CROSSBEAM_SOUTH_2, MATERIAL=CONCRETE, SECTION=BOX
5.00000, 8.00000, 1.00000, 1.00000, 1.00000, 1.00000
1.000, 0.000, 0.000
*BEAM SECTION, ELSET=TOWER_CROSSBEAM_NORTH_2, MATERIAL=CONCRETE, SECTION=BOX
5.00000, 8.00000, 1.00000, 1.00000, 1.00000, 1.00000
1.000, 0.000, 0.000
**
*BEAM SECTION, ELSET=TOWER_CROSSBEAM_SOUTH_3, MATERIAL=CONCRETE, SECTION=BOX
5.00000, 8.00000, 1.00000, 1.00000, 1.00000, 1.00000
1.000, 0.000, 0.000
*BEAM SECTION, ELSET=TOWER_CROSSBEAM_NORTH_3, MATERIAL=CONCRETE, SECTION=BOX
5.00000, 8.00000, 1.00000, 1.00000, 1.00000, 1.00000
1.000, 0.000, 0.000
**
*BEAM SECTION, ELSET=TOWER_CROSSBEAM_SOUTH_4, MATERIAL=CONCRETE, SECTION=BOX
5.00000, 8.00000, 1.00000, 1.00000, 1.00000, 1.00000
1.000, 0.000, 0.000
*BEAM SECTION, ELSET=TOWER_CROSSBEAM_NORTH_4, MATERIAL=CONCRETE, SECTION=BOX
5.00000, 8.00000, 1.00000, 1.00000, 1.00000, 1.00000
1.000, 0.000, 0.000
**
*BEAM SECTION, ELSET=TOWER_CROSSBEAM_SOUTH_5, MATERIAL=CONCRETE, SECTION=BOX
5.00000, 8.00000, 1.00000, 1.00000, 1.00000, 1.00000
1.000, 0.000, 0.000
*BEAM SECTION, ELSET=TOWER_CROSSBEAM_NORTH_5, MATERIAL=CONCRETE, SECTION=BOX
5.00000, 8.00000, 1.00000, 1.00000, 1.00000, 1.00000
1.000, 0.000, 0.000
**
*NSET, NSET=TOWER_LEG_SOUTH_CROSSBEAM_1_START
100005
**
**
*MPC
BEAM, Tower_crossbeam_south_1_start,Tower_leg_south_crossbeam_1_start
**
*NSET, NSET=TOWER_LEG_SOUTH_CROSSBEAM_1_END
110005
**
**
*MPC
BEAM, Tower_crossbeam_south_1_end,Tower_leg_south_crossbeam_1_end
**
*NSET, NSET=TOWER_LEG_SOUTH_CROSSBEAM_2_START
100030
**
**
*MPC
BEAM, Tower_crossbeam_south_2_start,Tower_leg_south_crossbeam_2_start
**
*NSET, NSET=TOWER_LEG_SOUTH_CROSSBEAM_2_END
110030
**
**
*MPC
BEAM, Tower_crossbeam_south_2_end,Tower_leg_south_crossbeam_2_end
**
*NSET, NSET=TOWER_LEG_SOUTH_CROSSBEAM_3_START
100044
**
**
*MPC
BEAM, Tower_crossbeam_south_3_start,Tower_leg_south_crossbeam_3_start
**
*NSET, NSET=TOWER_LEG_SOUTH_CROSSBEAM_3_END
110044
**
**
*MPC
BEAM, Tower_crossbeam_south_3_end,Tower_leg_south_crossbeam_3_end
**
*NSET, NSET=TOWER_LEG_SOUTH_CROSSBEAM_4_START
100058
**
**
*MPC
BEAM, Tower_crossbeam_south_4_start,Tower_leg_south_crossbeam_4_start
**
*NSET, NSET=TOWER_LEG_SOUTH_CROSSBEAM_4_END
110058
**
**
*MPC
BEAM, Tower_crossbeam_south_4_end,Tower_leg_south_crossbeam_4_end
**
*NSET, NSET=TOWER_LEG_SOUTH_CROSSBEAM_5_START
100072
**
**
*MPC
BEAM, Tower_crossbeam_south_5_start,Tower_leg_south_crossbeam_5_start
**
*NSET, NSET=TOWER_LEG_SOUTH_CROSSBEAM_5_END
110072
**
**
*MPC
BEAM, Tower_crossbeam_south_5_end,Tower_leg_south_crossbeam_5_end
**
*NSET, NSET=TOWER_LEG_NORTH_CROSSBEAM_1_START
200005
**
**
*MPC
BEAM, Tower_crossbeam_north_1_start,Tower_leg_north_crossbeam_1_start
**
*NSET, NSET=TOWER_LEG_NORTH_CROSSBEAM_1_END
210005
**
**
*MPC
BEAM, Tower_crossbeam_north_1_end,Tower_leg_north_crossbeam_1_end
**
*NSET, NSET=TOWER_LEG_NORTH_CROSSBEAM_2_START
200030
**
**
*MPC
BEAM, Tower_crossbeam_north_2_start,Tower_leg_north_crossbeam_2_start
**
*NSET, NSET=TOWER_LEG_NORTH_CROSSBEAM_2_END
210030
**
**
*MPC
BEAM, Tower_crossbeam_north_2_end,Tower_leg_north_crossbeam_2_end
**
*NSET, NSET=TOWER_LEG_NORTH_CROSSBEAM_3_START
200044
**
**
*MPC
BEAM, Tower_crossbeam_north_3_start,Tower_leg_north_crossbeam_3_start
**
*NSET, NSET=TOWER_LEG_NORTH_CROSSBEAM_3_END
210044
**
**
*MPC
BEAM, Tower_crossbeam_north_3_end,Tower_leg_north_crossbeam_3_end
**
*NSET, NSET=TOWER_LEG_NORTH_CROSSBEAM_4_START
200058
**
**
*MPC
BEAM, Tower_crossbeam_north_4_start,Tower_leg_north_crossbeam_4_start
**
*NSET, NSET=TOWER_LEG_NORTH_CROSSBEAM_4_END
210058
**
**
*MPC
BEAM, Tower_crossbeam_north_4_end,Tower_leg_north_crossbeam_4_end
**
*NSET, NSET=TOWER_LEG_NORTH_CROSSBEAM_5_START
200072
**
**
*MPC
BEAM, Tower_crossbeam_north_5_start,Tower_leg_north_crossbeam_5_start
**
*NSET, NSET=TOWER_LEG_NORTH_CROSSBEAM_5_END
210072
**
**
*MPC
BEAM, Tower_crossbeam_north_5_end,Tower_leg_north_crossbeam_5_end
**
***********************************************************
** SADLE
***********************************************************
*ELEMENT, TYPE=SPRING2, ELSET=SADLESPRING_X
300000,100075,10051
300001,110075,20051
300002,200075,10169
300003,210075,20169
*SPRING, ELSET=SADLESPRING_X
1,1
1.00000e+12
**
**
*ELEMENT, TYPE=SPRING2, ELSET=SADLESPRING_Y
301000,100075,10051
301001,110075,20051
301002,200075,10169
301003,210075,20169
*SPRING, ELSET=SADLESPRING_Y
2,2
1.00000e+12
**
**
*ELEMENT, TYPE=SPRING2, ELSET=SADLESPRING_Z
302000,100075,10051
302001,110075,20051
302002,200075,10169
302003,210075,20169
*SPRING, ELSET=SADLESPRING_Z
3,3
1.00000e+12
**
**
*ELSET, ELSET=SADLESPRING
SADLESPRING_X
SADLESPRING_Y
SADLESPRING_Z
**
**
***********************************************************
** BRIDGE DECK
***********************************************************
*NODE,NSET=BRIDGEDECK1_COG
1001,-1400.00000,-14.98700,59.50000
1002,-1396.00000,-14.98700,59.75107
1003,-1392.00000,-14.98700,60.00142
1004,-1388.00000,-14.98700,60.25105
1005,-1384.00000,-14.98700,60.49997
1006,-1380.00000,-14.98700,60.74816
1007,-1376.00000,-14.98700,60.99564
1008,-1372.00000,-14.98700,61.24240
1009,-1368.00000,-14.98700,61.48844
1010,-1364.00000,-14.98700,61.73376
1011,-1360.00000,-14.98700,61.97837
1012,-1356.00000,-14.98700,62.22225
1013,-1352.00000,-14.98700,62.46542
1014,-1348.00000,-14.98700,62.70787
1015,-1344.00000,-14.98700,62.94960
1016,-1340.00000,-14.98700,63.19061
1017,-1336.00000,-14.98700,63.43091
1018,-1332.00000,-14.98700,63.67048
1019,-1328.00000,-14.98700,63.90934
1020,-1324.00000,-14.98700,64.14748
** ... 681 like lines cut
**
**
*NODE,NSET=BRIDGEDECK2_COG
2001,-1400.00000,14.98700,59.50000
2002,-1396.00000,14.98700,59.75107
2003,-1392.00000,14.98700,60.00142
2004,-1388.00000,14.98700,60.25105
2005,-1384.00000,14.98700,60.49997
2006,-1380.00000,14.98700,60.74816
2007,-1376.00000,14.98700,60.99564
2008,-1372.00000,14.98700,61.24240
2009,-1368.00000,14.98700,61.48844
2010,-1364.00000,14.98700,61.73376
2011,-1360.00000,14.98700,61.97837
2012,-1356.00000,14.98700,62.22225
2013,-1352.00000,14.98700,62.46542
2014,-1348.00000,14.98700,62.70787
2015,-1344.00000,14.98700,62.94960
2016,-1340.00000,14.98700,63.19061
2017,-1336.00000,14.98700,63.43091
2018,-1332.00000,14.98700,63.67048
2019,-1328.00000,14.98700,63.90934
2020,-1324.00000,14.98700,64.14748
** ... 681 like lines cut
**
**
*NODE,NSET=BRIDGEDECK_INNER_EAST
3001,-1400.00000,-7.00000,58.96740
3002,-1396.00000,-7.00000,59.21847
3003,-1392.00000,-7.00000,59.46882
3004,-1388.00000,-7.00000,59.71845
3005,-1384.00000,-7.00000,59.96737
3006,-1380.00000,-7.00000,60.21556
3007,-1376.00000,-7.00000,60.46304
3008,-1372.00000,-7.00000,60.70980
3009,-1368.00000,-7.00000,60.95584
3010,-1364.00000,-7.00000,61.20116
3011,-1360.00000,-7.00000,61.44577
3012,-1356.00000,-7.00000,61.68965
3013,-1352.00000,-7.00000,61.93282
3014,-1348.00000,-7.00000,62.17527
3015,-1344.00000,-7.00000,62.41700
3016,-1340.00000,-7.00000,62.65801
3017,-1336.00000,-7.00000,62.89831
3018,-1332.00000,-7.00000,63.13788
3019,-1328.00000,-7.00000,63.37674
3020,-1324.00000,-7.00000,63.61488
** ... 681 like lines cut
**
**
*NODE,NSET=BRIDGEDECK_INNER_WEST
4001,-1400.00000,7.00000,58.96740
4002,-1396.00000,7.00000,59.21847
4003,-1392.00000,7.00000,59.46882
4004,-1388.00000,7.00000,59.71845
4005,-1384.00000,7.00000,59.96737
4006,-1380.00000,7.00000,60.21556
4007,-1376.00000,7.00000,60.46304
4008,-1372.00000,7.00000,60.70980
4009,-1368.00000,7.00000,60.95584
4010,-1364.00000,7.00000,61.20116
4011,-1360.00000,7.00000,61.44577
4012,-1356.00000,7.00000,61.68965
4013,-1352.00000,7.00000,61.93282
4014,-1348.00000,7.00000,62.17527
4015,-1344.00000,7.00000,62.41700
4016,-1340.00000,7.00000,62.65801
4017,-1336.00000,7.00000,62.89831
4018,-1332.00000,7.00000,63.13788
4019,-1328.00000,7.00000,63.37674
4020,-1324.00000,7.00000,63.61488
** ... 681 like lines cut
**
**
*NODE,NSET=BRIDGEDECK_GAPMID
5001,-1400.00000,0.00000,58.96740
5002,-1396.00000,0.00000,59.21847
5003,-1392.00000,0.00000,59.46882
5004,-1388.00000,0.00000,59.71845
5005,-1384.00000,0.00000,59.96737
5006,-1380.00000,0.00000,60.21556
5007,-1376.00000,0.00000,60.46304
5008,-1372.00000,0.00000,60.70980
5009,-1368.00000,0.00000,60.95584
5010,-1364.00000,0.00000,61.20116
5011,-1360.00000,0.00000,61.44577
5012,-1356.00000,0.00000,61.68965
5013,-1352.00000,0.00000,61.93282
5014,-1348.00000,0.00000,62.17527
5015,-1344.00000,0.00000,62.41700
5016,-1340.00000,0.00000,62.65801
5017,-1336.00000,0.00000,62.89831
5018,-1332.00000,0.00000,63.13788
5019,-1328.00000,0.00000,63.37674
5020,-1324.00000,0.00000,63.61488
** ... 681 like lines cut
**
**
*NODE,NSET=BRIDGEOUTER_EAST
11001,-1400.00000,-23.00000,59.83240
11003,-1392.00000,-23.00000,60.33382
11009,-1368.00000,-23.00000,61.82084
11015,-1344.00000,-23.00000,63.28200
11021,-1320.00000,-23.00000,64.71730
11027,-1296.00000,-23.00000,66.12673
11033,-1272.00000,-23.00000,67.51031
11039,-1248.00000,-23.00000,68.86802
11045,-1224.00000,-23.00000,70.19988
11051,-1200.00000,-23.00000,71.50587
11057,-1176.00000,-23.00000,72.78600
11063,-1152.00000,-23.00000,74.04027
11069,-1128.00000,-23.00000,75.26868
11075,-1104.00000,-23.00000,76.47122
11081,-1080.00000,-23.00000,77.64791
11087,-1056.00000,-23.00000,78.79873
11093,-1032.00000,-23.00000,79.92370
11099,-1008.00000,-23.00000,81.02280
11105,-984.00000,-23.00000,82.09604
11111,-960.00000,-23.00000,83.14342
** ... 99 like lines cut
**
**
*NODE,NSET=BRIDGEOUTER_WEST
12001,-1400.00000,23.00000,59.83240
12003,-1392.00000,23.00000,60.33382
12009,-1368.00000,23.00000,61.82084
12015,-1344.00000,23.00000,63.28200
12021,-1320.00000,23.00000,64.71730
12027,-1296.00000,23.00000,66.12673
12033,-1272.00000,23.00000,67.51031
12039,-1248.00000,23.00000,68.86802
12045,-1224.00000,23.00000,70.19988
12051,-1200.00000,23.00000,71.50587
12057,-1176.00000,23.00000,72.78600
12063,-1152.00000,23.00000,74.04027
12069,-1128.00000,23.00000,75.26868
12075,-1104.00000,23.00000,76.47122
12081,-1080.00000,23.00000,77.64791
12087,-1056.00000,23.00000,78.79873
12093,-1032.00000,23.00000,79.92370
12099,-1008.00000,23.00000,81.02280
12105,-984.00000,23.00000,82.09604
12111,-960.00000,23.00000,83.14342
** ... 99 like lines cut
**
**
*ELEMENT, TYPE=B31, ELSET=BRIDGEDECK1_COG
1001, 1001, 1002
1002, 1002, 1003
1003, 1003, 1004
1004, 1004, 1005
1005, 1005, 1006
1006, 1006, 1007
1007, 1007, 1008
1008, 1008, 1009
1009, 1009, 1010
1010, 1010, 1011
1011, 1011, 1012
1012, 1012, 1013
1013, 1013, 1014
1014, 1014, 1015
1015, 1015, 1016
1016, 1016, 1017
1017, 1017, 1018
1018, 1018, 1019
1019, 1019, 1020
1020, 1020, 1021
** ... 680 like lines cut
**
**
*ELEMENT, TYPE=B31, ELSET=BRIDGEDECK2_COG
2001, 2001, 2002
2002, 2002, 2003
2003, 2003, 2004
2004, 2004, 2005
2005, 2005, 2006
2006, 2006, 2007
2007, 2007, 2008
2008, 2008, 2009
2009, 2009, 2010
2010, 2010, 2011
2011, 2011, 2012
2012, 2012, 2013
2013, 2013, 2014
2014, 2014, 2015
2015, 2015, 2016
2016, 2016, 2017
2017, 2017, 2018
2018, 2018, 2019
2019, 2019, 2020
2020, 2020, 2021
** ... 680 like lines cut
**
**
*ELEMENT, TYPE=B31, ELSET=LATCONNOUTEREAST
3001, 1001, 11001
3002, 1003, 11003
3003, 1009, 11009
3004, 1015, 11015
3005, 1021, 11021
3006, 1027, 11027
3007, 1033, 11033
3008, 1039, 11039
3009, 1045, 11045
3010, 1051, 11051
3011, 1057, 11057
3012, 1063, 11063
3013, 1069, 11069
3014, 1075, 11075
3015, 1081, 11081
3016, 1087, 11087
3017, 1093, 11093
3018, 1099, 11099
3019, 1105, 11105
3020, 1111, 11111
** ... 99 like lines cut
**
**
*ELEMENT, TYPE=B31, ELSET=LATCONNOUTERWEST
4001, 2001, 12001
4002, 2003, 12003
4003, 2009, 12009
4004, 2015, 12015
4005, 2021, 12021
4006, 2027, 12027
4007, 2033, 12033
4008, 2039, 12039
4009, 2045, 12045
4010, 2051, 12051
4011, 2057, 12057
4012, 2063, 12063
4013, 2069, 12069
4014, 2075, 12075
4015, 2081, 12081
4016, 2087, 12087
4017, 2093, 12093
4018, 2099, 12099
4019, 2105, 12105
4020, 2111, 12111
** ... 99 like lines cut
**
**
*ELEMENT, TYPE=B31, ELSET=LATCONNINNEREAST
5001, 1001, 3001
5002, 1003, 3003
5003, 1009, 3009
5004, 1015, 3015
5005, 1021, 3021
5006, 1027, 3027
5007, 1033, 3033
5008, 1039, 3039
5009, 1045, 3045
5010, 1051, 3051
5011, 1057, 3057
5012, 1063, 3063
5013, 1069, 3069
5014, 1075, 3075
5015, 1081, 3081
5016, 1087, 3087
5017, 1093, 3093
5018, 1099, 3099
5019, 1105, 3105
5020, 1111, 3111
** ... 99 like lines cut
**
**
*ELEMENT, TYPE=B31, ELSET=LATCONNINNERWEST
6001, 2001, 4001
6002, 2003, 4003
6003, 2009, 4009
6004, 2015, 4015
6005, 2021, 4021
6006, 2027, 4027
6007, 2033, 4033
6008, 2039, 4039
6009, 2045, 4045
6010, 2051, 4051
6011, 2057, 4057
6012, 2063, 4063
6013, 2069, 4069
6014, 2075, 4075
6015, 2081, 4081
6016, 2087, 4087
6017, 2093, 4093
6018, 2099, 4099
6019, 2105, 4105
6020, 2111, 4111
** ... 99 like lines cut
**
**
*ELEMENT, TYPE=B31, ELSET=LATCONNGAPEAST
7001, 5001, 3001
7002, 5003, 3003
7003, 5009, 3009
7004, 5015, 3015
7005, 5021, 3021
7006, 5027, 3027
7007, 5033, 3033
7008, 5039, 3039
7009, 5045, 3045
7010, 5051, 3051
7011, 5057, 3057
7012, 5063, 3063
7013, 5069, 3069
7014, 5075, 3075
7015, 5081, 3081
7016, 5087, 3087
7017, 5093, 3093
7018, 5099, 3099
7019, 5105, 3105
7020, 5111, 3111
** ... 99 like lines cut
**
**
*ELEMENT, TYPE=B31, ELSET=LATCONNGAPWEST
8001, 5001, 4001
8002, 5003, 4003
8003, 5009, 4009
8004, 5015, 4015
8005, 5021, 4021
8006, 5027, 4027
8007, 5033, 4033
8008, 5039, 4039
8009, 5045, 4045
8010, 5051, 4051
8011, 5057, 4057
8012, 5063, 4063
8013, 5069, 4069
8014, 5075, 4075
8015, 5081, 4081
8016, 5087, 4087
8017, 5093, 4093
8018, 5099, 4099
8019, 5105, 4105
8020, 5111, 4111
** ... 99 like lines cut
**
**
*ELEMENT, TYPE=S4R, ELSET=BRIDGEDECK_SHELL_EAST1
910001, 11001, 1001, 1003, 11003
910002, 11003, 1003, 1009, 11009
910003, 11009, 1009, 1015, 11015
910004, 11015, 1015, 1021, 11021
910005, 11021, 1021, 1027, 11027
910006, 11027, 1027, 1033, 11033
910007, 11033, 1033, 1039, 11039
910008, 11039, 1039, 1045, 11045
910009, 11045, 1045, 1051, 11051
910010, 11051, 1051, 1057, 11057
910011, 11057, 1057, 1063, 11063
910012, 11063, 1063, 1069, 11069
910013, 11069, 1069, 1075, 11075
910014, 11075, 1075, 1081, 11081
910015, 11081, 1081, 1087, 11087
910016, 11087, 1087, 1093, 11093
910017, 11093, 1093, 1099, 11099
910018, 11099, 1099, 1105, 11105
910019, 11105, 1105, 1111, 11111
910020, 11111, 1111, 1117, 11117
** ... 98 like lines cut
**
**
*ELEMENT, TYPE=S4R, ELSET=BRIDGEDECK_SHELL_EAST2
911001, 3001, 1001, 1003, 3003
911002, 3003, 1003, 1009, 3009
911003, 3009, 1009, 1015, 3015
911004, 3015, 1015, 1021, 3021
911005, 3021, 1021, 1027, 3027
911006, 3027, 1027, 1033, 3033
911007, 3033, 1033, 1039, 3039
911008, 3039, 1039, 1045, 3045
911009, 3045, 1045, 1051, 3051
911010, 3051, 1051, 1057, 3057
911011, 3057, 1057, 1063, 3063
911012, 3063, 1063, 1069, 3069
911013, 3069, 1069, 1075, 3075
911014, 3075, 1075, 1081, 3081
911015, 3081, 1081, 1087, 3087
911016, 3087, 1087, 1093, 3093
911017, 3093, 1093, 1099, 3099
911018, 3099, 1099, 1105, 3105
911019, 3105, 1105, 1111, 3111
911020, 3111, 1111, 1117, 3117
** ... 98 like lines cut
**
**
*ELEMENT, TYPE=S4R, ELSET=BRIDGEDECK_SHELL_WEST1
920001, 12001, 2001, 2003, 12003
920002, 12003, 2003, 2009, 12009
920003, 12009, 2009, 2015, 12015
920004, 12015, 2015, 2021, 12021
920005, 12021, 2021, 2027, 12027
920006, 12027, 2027, 2033, 12033
920007, 12033, 2033, 2039, 12039
920008, 12039, 2039, 2045, 12045
920009, 12045, 2045, 2051, 12051
920010, 12051, 2051, 2057, 12057
920011, 12057, 2057, 2063, 12063
920012, 12063, 2063, 2069, 12069
920013, 12069, 2069, 2075, 12075
920014, 12075, 2075, 2081, 12081
920015, 12081, 2081, 2087, 12087
920016, 12087, 2087, 2093, 12093
920017, 12093, 2093, 2099, 12099
920018, 12099, 2099, 2105, 12105
920019, 12105, 2105, 2111, 12111
920020, 12111, 2111, 2117, 12117
** ... 98 like lines cut
**
**
*ELEMENT, TYPE=S4R, ELSET=BRIDGEDECK_SHELL_WEST2
921001, 4001, 2001, 2003, 4003
921002, 4003, 2003, 2009, 4009
921003, 4009, 2009, 2015, 4015
921004, 4015, 2015, 2021, 4021
921005, 4021, 2021, 2027, 4027
921006, 4027, 2027, 2033, 4033
921007, 4033, 2033, 2039, 4039
921008, 4039, 2039, 2045, 4045
921009, 4045, 2045, 2051, 4051
921010, 4051, 2051, 2057, 4057
921011, 4057, 2057, 2063, 4063
921012, 4063, 2063, 2069, 4069
921013, 4069, 2069, 2075, 4075
921014, 4075, 2075, 2081, 4081
921015, 4081, 2081, 2087, 4087
921016, 4087, 2087, 2093, 4093
921017, 4093, 2093, 2099, 4099
921018, 4099, 2099, 2105, 4105
921019, 4105, 2105, 2111, 4111
921020, 4111, 2111, 2117, 4117
** ... 98 like lines cut
**
**
*ELSET, ELSET=BRIDGEDECK_COG
BRIDGEDECK1_COG
BRIDGEDECK2_COG
**
**
*ELSET, ELSET=LATCONNOUTER
LATCONNOUTEREAST
LATCONNOUTERWEST
**
**
*ELSET, ELSET=LATCONNINNER
LATCONNINNEREAST
LATCONNINNERWEST
**
**
*ELSET, ELSET=LATCONNGAP
LATCONNGAPWEST
LATCONNGAPEAST
**
**
*ELSET, ELSET=BRIDGEDECK_SHELL
BRIDGEDECK_SHELL_EAST1
BRIDGEDECK_SHELL_EAST2
BRIDGEDECK_SHELL_WEST1
BRIDGEDECK_SHELL_WEST2
**
**
*ELSET, ELSET=BRIDGEDECK
BRIDGEDECK_COG
LATCONNOUTER
LATCONNINNER
LATCONNGAP
**
**
*BEAM GENERAL SECTION, ELSET=LATCONNOUTER, SECTION=GENERAL, DENSITY=0.000
1.00000e-01, 1.00000e+00, 0.00000e+00, 1.00000e+00, 1.00000e+00
1.000, 0.000, 0.000
2.10000e+13, 8.10000e+12
*BEAM GENERAL SECTION, ELSET=BRIDGEDECK1_COG, SECTION=GENERAL, DENSITY=0.000
7.30000e-01, 6.40000e-01, 0.00000e+00, 1.71400e+01, 1.85000e+00
0.000, 1.000, 0.000
2.10000e+11, 8.10000e+10
*BEAM ADDED INERTIA
9.300e+03, 0.000e+00, 0.000e+00, 0.000e+00, 6.400e+04, 1.200e+06, 0.000e+0
**
*SHEAR CENTER
2.130e+00,-2.000e-01
*BEAM GENERAL SECTION, ELSET=BRIDGEDECK2_COG, SECTION=GENERAL, DENSITY=0.000
7.30000e-01, 6.40000e-01, 0.00000e+00, 1.71400e+01, 1.85000e+00
0.000, 1.000, 0.000
2.10000e+11, 8.10000e+10
*BEAM ADDED INERTIA
9.300e+03, 0.000e+00, 0.000e+00, 0.000e+00, 6.400e+04, 1.200e+06, 0.000e+0
**
*SHEAR CENTER
-2.130e+00,-2.000e-01
*BEAM GENERAL SECTION, ELSET=LATCONNINNER, SECTION=GENERAL, DENSITY=0.000
1.00000e-01, 1.00000e+00, 0.00000e+00, 1.00000e+00, 1.00000e+00
1.000, 0.000, 0.000
2.10000e+13, 8.10000e+12
*BEAM SECTION, ELSET=LATCONNGAP, MATERIAL=STEEL, SECTION=BOX
2.00000, 2.00000, 0.02000, 0.02000, 0.02000, 0.02000
1.000, 0.000, 0.000
**
*SHELL SECTION, ELSET=BRIDGEDECK_SHELL, MATERIAL=SOFT, OFFSET=SNEG
0.010,3
**
***********************************************************
** HANGER
***********************************************************
*ELEMENT, TYPE=B31, ELSET=HANGER_EAST
80001, 11003, 10052
80002, 11009, 10053
80003, 11015, 10054
80004, 11021, 10055
80005, 11027, 10056
80006, 11033, 10057
80007, 11039, 10058
80008, 11045, 10059
80009, 11051, 10060
80010, 11057, 10061
80011, 11063, 10062
80012, 11069, 10063
80013, 11075, 10064
80014, 11081, 10065
80015, 11087, 10066
80016, 11093, 10067
80017, 11099, 10068
80018, 11105, 10069
80019, 11111, 10070
80020, 11117, 10071
** ... 97 like lines cut
**
**
*ELEMENT, TYPE=B31, ELSET=HANGER_WEST
90001, 12003, 20052
90002, 12009, 20053
90003, 12015, 20054
90004, 12021, 20055
90005, 12027, 20056
90006, 12033, 20057
90007, 12039, 20058
90008, 12045, 20059
90009, 12051, 20060
90010, 12057, 20061
90011, 12063, 20062
90012, 12069, 20063
90013, 12075, 20064
90014, 12081, 20065
90015, 12087, 20066
90016, 12093, 20067
90017, 12099, 20068
90018, 12105, 20069
90019, 12111, 20070
90020, 12117, 20071
** ... 97 like lines cut
**
**
*ELSET, ELSET=HANGER
HANGER_EAST
HANGER_WEST
**
**
*BEAM GENERAL SECTION, ELSET=HANGER, SECTION=GENERAL, DENSITY=7850.000
4.00000e-03, 1.00000e-07, 0.00000e+00, 1.00000e-07, 1.00000e-07
0.000, 1.000, 0.000
1.60000e+11, 6.00000e+10
*RELEASE
Hanger, S1, M1-M2
Hanger, S2, M1-M2
**
***********************************************************
** BEARINGS
***********************************************************
*ELEMENT, TYPE=SPRING2, ELSET=BEARINGSPRING1_SOUTH_X
410000,400002,400005
*SPRING, ELSET=BEARINGSPRING1_SOUTH_X
1,1
3.00000e+07
**
**
*ELEMENT, TYPE=SPRING2, ELSET=BEARINGSPRING1_SOUTH_Y
410001,400002,400005
*SPRING, ELSET=BEARINGSPRING1_SOUTH_Y
2,2
1.00000e+12
**
**
*ELEMENT, TYPE=SPRING2, ELSET=BEARINGSPRING1_SOUTH_Z
410002,400002,400005
*SPRING, ELSET=BEARINGSPRING1_SOUTH_Z
3,3
1.00000e+06
**
**
*ELEMENT, TYPE=SPRING2, ELSET=BEARINGSPRING1_SOUTH_RX
410003,400002,400005
*SPRING, ELSET=BEARINGSPRING1_SOUTH_RX
4,4
1.00000e+00
**
**
*ELEMENT, TYPE=SPRING2, ELSET=BEARINGSPRING1_SOUTH_RY
410004,400002,400005
*SPRING, ELSET=BEARINGSPRING1_SOUTH_RY
5,5
1.00000e+00
**
**
*ELEMENT, TYPE=SPRING2, ELSET=BEARINGSPRING1_SOUTH_RZ
410005,400002,400005
*SPRING, ELSET=BEARINGSPRING1_SOUTH_RZ
6,6
1.00000e+00
**
**
*ELEMENT, TYPE=SPRING2, ELSET=BEARINGSPRING1_NORTH_X
411000,401002,401005
*SPRING, ELSET=BEARINGSPRING1_NORTH_X
1,1
3.00000e+07
**
**
*ELEMENT, TYPE=SPRING2, ELSET=BEARINGSPRING1_NORTH_Y
411001,401002,401005
*SPRING, ELSET=BEARINGSPRING1_NORTH_Y
2,2
1.00000e+12
**
**
*ELEMENT, TYPE=SPRING2, ELSET=BEARINGSPRING1_NORTH_Z
411002,401002,401005
*SPRING, ELSET=BEARINGSPRING1_NORTH_Z
3,3
1.00000e+06
**
**
*ELEMENT, TYPE=SPRING2, ELSET=BEARINGSPRING1_NORTH_RX
411003,401002,401005
*SPRING, ELSET=BEARINGSPRING1_NORTH_RX
4,4
1.00000e+00
**
**
*ELEMENT, TYPE=SPRING2, ELSET=BEARINGSPRING1_NORTH_RY
411004,401002,401005
*SPRING, ELSET=BEARINGSPRING1_NORTH_RY
5,5
1.00000e+00
**
**
*ELEMENT, TYPE=SPRING2, ELSET=BEARINGSPRING1_NORTH_RZ
411005,401002,401005
*SPRING, ELSET=BEARINGSPRING1_NORTH_RZ
6,6
1.00000e+00
**
**
*ELEMENT, TYPE=SPRING2, ELSET=BEARINGSPRING2_SOUTH_X
410100,400102,400105
*SPRING, ELSET=BEARINGSPRING2_SOUTH_X
1,1
3.00000e+07
**
**
*ELEMENT, TYPE=SPRING2, ELSET=BEARINGSPRING2_SOUTH_Y
410101,400102,400105
*SPRING, ELSET=BEARINGSPRING2_SOUTH_Y
2,2
1.00000e+12
**
**
*ELEMENT, TYPE=SPRING2, ELSET=BEARINGSPRING2_SOUTH_Z
410102,400102,400105
*SPRING, ELSET=BEARINGSPRING2_SOUTH_Z
3,3
1.00000e+06
**
**
*ELEMENT, TYPE=SPRING2, ELSET=BEARINGSPRING2_SOUTH_RX
410103,400102,400105
*SPRING, ELSET=BEARINGSPRING2_SOUTH_RX
4,4
1.00000e+00
**
**
*ELEMENT, TYPE=SPRING2, ELSET=BEARINGSPRING2_SOUTH_RY
410104,400102,400105
*SPRING, ELSET=BEARINGSPRING2_SOUTH_RY
5,5
1.00000e+00
**
**
*ELEMENT, TYPE=SPRING2, ELSET=BEARINGSPRING2_SOUTH_RZ
410105,400102,400105
*SPRING, ELSET=BEARINGSPRING2_SOUTH_RZ
6,6
1.00000e+00
**
**
*ELEMENT, TYPE=SPRING2, ELSET=BEARINGSPRING2_NORTH_X
411100,401102,401105
*SPRING, ELSET=BEARINGSPRING2_NORTH_X
1,1
3.00000e+07
**
**
*ELEMENT, TYPE=SPRING2, ELSET=BEARINGSPRING2_NORTH_Y
411101,401102,401105
*SPRING, ELSET=BEARINGSPRING2_NORTH_Y
2,2
1.00000e+12
**
**
*ELEMENT, TYPE=SPRING2, ELSET=BEARINGSPRING2_NORTH_Z
411102,401102,401105
*SPRING, ELSET=BEARINGSPRING2_NORTH_Z
3,3
1.00000e+06
**
**
*ELEMENT, TYPE=SPRING2, ELSET=BEARINGSPRING2_NORTH_RX
411103,401102,401105
*SPRING, ELSET=BEARINGSPRING2_NORTH_RX
4,4
1.00000e+00
**
**
*ELEMENT, TYPE=SPRING2, ELSET=BEARINGSPRING2_NORTH_RY
411104,401102,401105
*SPRING, ELSET=BEARINGSPRING2_NORTH_RY
5,5
1.00000e+00
**
**
*ELEMENT, TYPE=SPRING2, ELSET=BEARINGSPRING2_NORTH_RZ
411105,401102,401105
*SPRING, ELSET=BEARINGSPRING2_NORTH_RZ
6,6
1.00000e+00
**
**
*NODE,NSET=BEARINGTOP1_SOUTH
400001,-1400.00000,-20.50000,59.50000
400002,-1400.00000,-14.98700,58.00000
400003,-1400.00000,-9.50000,59.50000
**
**
*NODE,NSET=BEARINGLOW1_SOUTH
400004,-1399.00000,-20.32140,55.50000
400005,-1399.00000,-14.98700,56.00000
400006,-1399.00000,-9.50000,55.50000
**
**
*NODE,NSET=BEARINGTOP1_NORTH
401001,1400.00000,-20.50000,59.50000
401002,1400.00000,-14.98700,58.00000
401003,1400.00000,-9.50000,59.50000
**
**
*NODE,NSET=BEARINGLOW1_NORTH
401004,1399.00000,-20.32140,55.50000
401005,1399.00000,-14.98700,56.00000
401006,1399.00000,-9.50000,55.50000
**
**
*NODE,NSET=BEARINGTOP2_SOUTH
400101,-1400.00000,9.50000,59.50000
400102,-1400.00000,14.98700,58.00000
400103,-1400.00000,20.50000,59.50000
**
**
*NODE,NSET=BEARINGLOW2_SOUTH
400104,-1399.00000,9.50000,55.50000
400105,-1399.00000,14.98700,56.00000
400106,-1399.00000,20.32140,55.50000
**
**
*NODE,NSET=BEARINGTOP2_NORTH
401101,1400.00000,9.50000,59.50000
401102,1400.00000,14.98700,58.00000
401103,1400.00000,20.50000,59.50000
**
**
*NODE,NSET=BEARINGLOW2_NORTH
401104,1399.00000,9.50000,55.50000
401105,1399.00000,14.98700,56.00000
401106,1399.00000,20.32140,55.50000
**
**
*ELEMENT, TYPE=B31, ELSET=BEARINGTOP1_SOUTH
400001, 11001, 400001
400002, 400001, 400002
400003, 400002, 400003
400004, 400003, 3001
400005, 1001, 400002
**
**
*ELEMENT, TYPE=B31, ELSET=BEARINGLOW1_SOUTH
400006, 101002, 400004
400007, 101003, 400005
400008, 101004, 400006
**
**
*ELEMENT, TYPE=B31, ELSET=BEARINGPENDULUM1_SOUTH
400009, 400001, 400004
400010, 400003, 400006
**
**
*ELEMENT, TYPE=B31, ELSET=BEARINGTOP1_NORTH
401001, 11701, 401001
401002, 401001, 401002
401003, 401002, 401003
401004, 401003, 3701
401005, 1701, 401002
**
**
*ELEMENT, TYPE=B31, ELSET=BEARINGLOW1_NORTH
401006, 201002, 401004
401007, 201003, 401005
401008, 201004, 401006
**
**
*ELEMENT, TYPE=B31, ELSET=BEARINGPENDULUM1_NORTH
401009, 401001, 401004
401010, 401003, 401006
**
**
*ELEMENT, TYPE=B31, ELSET=BEARINGTOP2_SOUTH
400101, 4001, 400101
400102, 400101, 400102
400103, 400102, 400103
400104, 400103, 12001
400105, 2001, 400102
**
**
*ELEMENT, TYPE=B31, ELSET=BEARINGLOW2_SOUTH
400106, 101005, 400104
400107, 101006, 400105
400108, 101007, 400106
**
**
*ELEMENT, TYPE=B31, ELSET=BEARINGPENDULUM2_SOUTH
400109, 400101, 400104
400110, 400103, 400106
**
**
*ELEMENT, TYPE=B31, ELSET=BEARINGTOP2_NORTH
401101, 4701, 401101
401102, 401101, 401102
401103, 401102, 401103
401104, 401103, 12701
401105, 2701, 401102
**
**
*ELEMENT, TYPE=B31, ELSET=BEARINGLOW2_NORTH
401106, 201005, 401104
401107, 201006, 401105
401108, 201007, 401106
**
**
*ELEMENT, TYPE=B31, ELSET=BEARINGPENDULUM2_NORTH
401109, 401101, 401104
401110, 401103, 401106
**
**
*ELSET, ELSET=BEARINGSPRING1_SOUTH
BEARINGSPRING1_SOUTH_X
BEARINGSPRING1_SOUTH_Y
BEARINGSPRING1_SOUTH_Z
BEARINGSPRING1_SOUTH_RX
BEARINGSPRING1_SOUTH_RY
BEARINGSPRING1_SOUTH_RZ
**
**
*ELSET, ELSET=BEARINGSPRING1_NORTH
BEARINGSPRING1_NORTH_X
BEARINGSPRING1_NORTH_Y
BEARINGSPRING1_NORTH_Z
BEARINGSPRING1_NORTH_RX
BEARINGSPRING1_NORTH_RY
BEARINGSPRING1_NORTH_RZ
**
**
*ELSET, ELSET=BEARINGSPRING2_SOUTH
BEARINGSPRING2_SOUTH_X
BEARINGSPRING2_SOUTH_Y
BEARINGSPRING2_SOUTH_Z
BEARINGSPRING2_SOUTH_RX
BEARINGSPRING2_SOUTH_RY
BEARINGSPRING2_SOUTH_RZ
**
**
*ELSET, ELSET=BEARINGSPRING2_NORTH
BEARINGSPRING2_NORTH_X
BEARINGSPRING2_NORTH_Y
BEARINGSPRING2_NORTH_Z
BEARINGSPRING2_NORTH_RX
BEARINGSPRING2_NORTH_RY
BEARINGSPRING2_NORTH_RZ
**
**
*ELSET, ELSET=BEARINGTOP
BEARINGTOP1_SOUTH
BEARINGTOP1_NORTH
BEARINGTOP2_SOUTH
BEARINGTOP2_NORTH
**
**
*ELSET, ELSET=BEARINGLOW
BEARINGLOW1_SOUTH
BEARINGLOW1_NORTH
BEARINGLOW2_SOUTH
BEARINGLOW2_NORTH
**
**
*ELSET, ELSET=BEARINGPENDULUM
BEARINGPENDULUM1_SOUTH
BEARINGPENDULUM1_NORTH
BEARINGPENDULUM2_SOUTH
BEARINGPENDULUM2_NORTH
**
**
*ELSET, ELSET=BEARINGSPRING
BEARINGSPRING1_SOUTH
BEARINGSPRING1_NORTH
BEARINGSPRING2_SOUTH
BEARINGSPRING2_NORTH
**
**
*ELSET, ELSET=BEARING
BEARINGLOW
BEARINGTOP
BEARINGPENDULUM
BEARINGSPRING
**
**
*BEAM GENERAL SECTION, ELSET=BEARINGTOP, SECTION=GENERAL, DENSITY=0.000
1.00000e-01, 1.00000e+00, 0.00000e+00, 1.00000e+00, 1.00000e+00
1.000, 0.000, 0.000
2.10000e+13, 8.10000e+12
*BEAM GENERAL SECTION, ELSET=BEARINGLOW, SECTION=GENERAL, DENSITY=0.000
1.00000e-01, 1.00000e+00, 0.00000e+00, 1.00000e+00, 1.00000e+00
1.000, 0.000, 0.000
2.10000e+13, 8.10000e+12
*BEAM SECTION, ELSET=BEARINGPENDULUM, MATERIAL=STEEL, SECTION=BOX
0.20000, 0.20000, 0.02000, 0.02000, 0.02000, 0.02000
0.000, 1.000, 0.000
**
*RELEASE
BEARINGPENDULUM, S1, M1-M2
BEARINGPENDULUM, S2, M1-M2
**
*END PART
**
***********************************************************
** ASSEMBLY
***********************************************************
*ASSEMBLY, NAME=ASSEMBLYSUSPENSIONBRIDGE
**
*INSTANCE, NAME=SUSPENSIONBRIDGE, PART=SUSPENSIONBRIDGE
**
*END INSTANCE
**
*END ASSEMBLY
**
**********
** Towers, retraction
**********
*STEP , NLGEO=YES, NAME=STEP1
*STATIC 
1.0e-01,1.0e+00,1.0e-06,1.0e+00
**
*MODEL CHANGE, REMOVE
SuspensionBridge.CABLE_MAIN
SuspensionBridge.SADLESPRING
SuspensionBridge.BRIDGEDECK
SuspensionBridge.HANGER
SuspensionBridge.BEARINGTOP
SuspensionBridge.BEARINGPENDULUM
SuspensionBridge.BEARINGSPRING
**
*MODEL CHANGE, REMOVE
SuspensionBridge.CABLE_TEMPSUPPORT
**
*MODEL CHANGE, REMOVE
SuspensionBridge.Bridgedeck_shell
**
*CLOAD, OP=NEW
SuspensionBridge.Tower_top_south_east, 1, -7.341e+05
SuspensionBridge.Tower_top_south_west, 1, -7.341e+05
**
*CLOAD, OP=NEW
SuspensionBridge.Tower_top_north_east, 1, 7.341e+05
SuspensionBridge.Tower_top_north_west, 1, 7.341e+05
**
*DLOAD, OP=NEW
, GRAV, 9.81000, 0 , 0, -1
**
*BOUNDARY, OP=NEW
SuspensionBridge.Tower_base,1,6,0
**
**
*OUTPUT, FIELD, FREQUENCY=100
*NODE OUTPUT 
U
RF
COORD
**
*OUTPUT, FIELD, FREQUENCY=100
*ELEMENT OUTPUT 
SF
**
*END STEP
**
**
**********
** Add main cable, release retraction
**********
*STEP , NLGEO=YES, NAME=STEP2
*STATIC 
1.0e-06,1.0e+00,1.0e-12,1.0e+00
**
*MODEL CHANGE, ADD
SuspensionBridge.CABLE_MAIN
SuspensionBridge.SADLESPRING
**
*MODEL CHANGE, ADD
SuspensionBridge.CABLE_TEMPSUPPORT
**
*CLOAD, OP=NEW
**
*DLOAD, OP=NEW
, GRAV, 9.81000, 0 , 0, -1
**
*BOUNDARY, OP=NEW
SuspensionBridge.Tower_base,1,6,0
**
**
*BOUNDARY, OP=NEW
SuspensionBridge.Cable_main_anchorage,1,4,0
**
**
*OUTPUT, FIELD, FREQUENCY=100
*NODE OUTPUT 
U
RF
COORD
**
*OUTPUT, FIELD, FREQUENCY=100
*ELEMENT OUTPUT 
SF
S
**
*END STEP
**
**
**********
** Add hangers and bridge deck, remove main cable temp supports
**********
*STEP , NLGEO=YES, NAME=STEP3
*STATIC 
1.0e-04,1.0e+00,1.0e-09,1.0e+00
**
*MODEL CHANGE, ADD
SuspensionBridge.BRIDGEDECK
SuspensionBridge.HANGER
SuspensionBridge.BEARINGTOP
**
*MODEL CHANGE, REMOVE
SuspensionBridge.CABLE_TEMPSUPPORT
**
*DLOAD, OP=NEW
SuspensionBridge.TOWER, GRAV, 9.81000, 0 , 0, -1
SuspensionBridge.CABLE_MAIN, GRAV, 9.81000, 0 , 0, -1
SuspensionBridge.HANGER, GRAV, 9.81000, 0 , 0, -1
SuspensionBridge.BRIDGEDECK, GRAV, 9.81000, 0 , 0, -1
SuspensionBridge.BEARINGTOP, GRAV, 9.81000, 0 , 0, -1
SuspensionBridge.BEARINGLOW, GRAV, 9.81000, 0 , 0, -1
**
*OUTPUT, FIELD, FREQUENCY=100
*NODE OUTPUT 
U
RF
COORD
**
*OUTPUT, FIELD, FREQUENCY=100
*ELEMENT OUTPUT 
SF
S
**
*END STEP
**
**
**********
** Add bearings at bridge deck ends
**********
*STEP , NLGEO=YES, NAME=STEP4
*STATIC 
1.0e-01,1.0e+00,1.0e-06,1.0e+00
**
*MODEL CHANGE, ADD
SuspensionBridge.BEARINGPENDULUM
SuspensionBridge.BEARINGSPRING
**
*MODEL CHANGE, ADD
SuspensionBridge.Bridgedeck_shell
**
*OUTPUT, FIELD, FREQUENCY=100
*NODE OUTPUT 
U
RF
COORD
**
*OUTPUT, FIELD, FREQUENCY=100
*ELEMENT OUTPUT 
SF
S
**
*END STEP
**
**
**********
** 
**********
*STEP , NAME=STEP_MODAL
*FREQUENCY, NORMALIZATION=DISPLACEMENT, SIM=NO
100
**
**
*OUTPUT, FIELD
*NODE OUTPUT 
U
COORD
**
*OUTPUT, FIELD
*ELEMENT OUTPUT 
SF
**
*END STEP
**
**
