1

   Abaqus 3DEXPERIENCE R2017x                                  Date 30-Mar-2022   Time 11:27:48
   For use by NTNU NORGES TEKNISK NATURVITENSKAPELIGE UNIVERSITET under license from Dassault Systemes or its subsidiary.

                                                                                 
                                                                                 
 STEP    1     INCREMENT     1     STEP TIME    0.00    


                        S T E P       1     S T A T I C   A N A L Y S I S


                                                                                          

     AUTOMATIC TIME CONTROL WITH -
          A SUGGESTED INITIAL TIME INCREMENT OF                0.100    
          AND A TOTAL TIME PERIOD OF                            1.00    
          THE MINIMUM TIME INCREMENT ALLOWED IS                1.000E-06
          THE MAXIMUM TIME INCREMENT ALLOWED IS                 1.00    

     LINEAR EQUATION SOLVER TYPE         DIRECT SPARSE

 CONVERGENCE TOLERANCE PARAMETERS FOR FORCE    
     CRITERION FOR RESIDUAL FORCE     FOR A NONLINEAR PROBLEM          5.000E-03
     CRITERION FOR DISP.    CORRECTION IN A NONLINEAR PROBLEM          1.000E-02
     INITIAL VALUE OF TIME AVERAGE FORCE                               1.000E-02
     AVERAGE FORCE     IS TIME AVERAGE FORCE    
     ALTERNATE CRIT. FOR RESIDUAL FORCE     FOR A NONLINEAR PROBLEM    2.000E-02
     CRITERION FOR ZERO FORCE     RELATIVE TO TIME AVRG. FORCE         1.000E-05
     CRITERION FOR RESIDUAL FORCE     WHEN THERE IS ZERO FLUX          1.000E-05
     CRITERION FOR DISP.    CORRECTION WHEN THERE IS ZERO FLUX         1.000E-03
     CRITERION FOR RESIDUAL FORCE     FOR A LINEAR INCREMENT           1.000E-08
     FIELD CONVERSION RATIO                                             1.00    
     CRITERION FOR ZERO FORCE     REL. TO TIME AVRG. MAX. FORCE        1.000E-05
     CRITERION FOR ZERO DISP.    RELATIVE TO CHARACTERISTIC LENGTH     1.000E-08

 CONVERGENCE TOLERANCE PARAMETERS FOR MOMENT   
     CRITERION FOR RESIDUAL MOMENT    FOR A NONLINEAR PROBLEM          5.000E-03
     CRITERION FOR ROTATION CORRECTION IN A NONLINEAR PROBLEM          1.000E-02
     INITIAL VALUE OF TIME AVERAGE MOMENT                              1.000E-02
     AVERAGE MOMENT    IS TIME AVERAGE MOMENT   
     ALTERNATE CRIT. FOR RESIDUAL MOMENT    FOR A NONLINEAR PROBLEM    2.000E-02
     CRITERION FOR ZERO MOMENT    RELATIVE TO TIME AVRG. MOMENT        1.000E-05
     CRITERION FOR RESIDUAL MOMENT    WHEN THERE IS ZERO FLUX          1.000E-05
     CRITERION FOR ROTATION CORRECTION WHEN THERE IS ZERO FLUX         1.000E-03
     CRITERION FOR RESIDUAL MOMENT    FOR A LINEAR INCREMENT           1.000E-08
     FIELD CONVERSION RATIO                                             1.00    
     CRITERION FOR ZERO MOMENT    REL. TO TIME AVRG. MAX. MOMENT       1.000E-05

     VOLUMETRIC STRAIN COMPATIBILITY TOLERANCE FOR HYBRID SOLIDS       1.000E-05
     AXIAL STRAIN COMPATIBILITY TOLERANCE FOR HYBRID BEAMS             1.000E-05
     TRANS. SHEAR STRAIN COMPATIBILITY TOLERANCE FOR HYBRID BEAMS      1.000E-05
     SOFT CONTACT CONSTRAINT COMPATIBILITY TOLERANCE FOR P>P0          5.000E-03
     SOFT CONTACT CONSTRAINT COMPATIBILITY TOLERANCE FOR P=0.0         0.100    
     CONTACT FORCE ERROR TOLERANCE FOR CONVERT SDI=YES                 1.00    
     DISPLACEMENT COMPATIBILITY TOLERANCE FOR DCOUP ELEMENTS           1.000E-05
     ROTATION COMPATIBILITY TOLERANCE FOR DCOUP ELEMENTS               1.000E-05

 EQUILIBRIUM WILL BE CHECKED FOR SEVERE DISCONTINUITY ITERATIONS

 TIME INCREMENTATION CONTROL PARAMETERS:
     FIRST EQUILIBRIUM ITERATION FOR CONSECUTIVE DIVERGENCE CHECK              4
     EQUILIBRIUM ITERATION AT WHICH LOG. CONVERGENCE RATE CHECK BEGINS         8
     EQUILIBRIUM ITERATION AFTER WHICH ALTERNATE RESIDUAL IS USED              9
     MAXIMUM EQUILIBRIUM ITERATIONS ALLOWED                                   16
     EQUILIBRIUM ITERATION COUNT FOR CUT-BACK IN NEXT INCREMENT               10
     MAXIMUM EQUILIB. ITERS IN TWO INCREMENTS FOR TIME INCREMENT INCREASE      4
     MAXIMUM ITERATIONS FOR SEVERE DISCONTINUITIES                            50
     MAXIMUM ATTEMPTS ALLOWED IN AN INCREMENT                                  5
     MAXIMUM DISCON. ITERS IN TWO INCREMENTS FOR TIME INCREMENT INCREASE      50
     MAXIMUM CONTACT AUGMENTATIONS FOR *SURFACE BEHAVIOR,AUGMENTED LAGRANGE   50
     CUT-BACK FACTOR AFTER DIVERGENCE                                 0.2500    
     CUT-BACK FACTOR FOR TOO SLOW CONVERGENCE                         0.5000    
     CUT-BACK FACTOR AFTER TOO MANY EQUILIBRIUM ITERATIONS            0.7500    
     CUT-BACK FACTOR AFTER TOO MANY SEVERE DISCONTINUITY ITERATIONS   0.2500    
     CUT-BACK FACTOR AFTER PROBLEMS IN ELEMENT ASSEMBLY               0.2500    
     INCREASE FACTOR AFTER TWO INCREMENTS THAT CONVERGE QUICKLY        1.500    
     MAX. TIME INCREMENT INCREASE FACTOR ALLOWED                       1.500    
     MAX. TIME INCREMENT INCREASE FACTOR ALLOWED (DYNAMICS)            1.250    
     MAX. TIME INCREMENT INCREASE FACTOR ALLOWED (DIFFUSION)           2.000    
     MINIMUM TIME INCREMENT RATIO FOR EXTRAPOLATION TO OCCUR          0.1000    
     MAX. RATIO OF TIME INCREMENT TO STABILITY LIMIT                   1.000    
     FRACTION OF STABILITY LIMIT FOR NEW TIME INCREMENT               0.9500    
     TIME INCREMENT INCREASE FACTOR BEFORE A TIME POINT                1.000    
     GLOBAL STABILIZATION CONTROL IS NOT USED

          PRINT OF INCREMENT NUMBER, TIME, ETC., EVERY    1  INCREMENTS

     THE MAXIMUM NUMBER OF INCREMENTS IN THIS STEP IS                     100

          LARGE DISPLACEMENT THEORY WILL BE USED

     LINEAR EXTRAPOLATION WILL BE USED

     CHARACTERISTIC ELEMENT LENGTH      15.8    

     DETAILS REGARDING ACTUAL SOLUTION WAVEFRONT REQUESTED

     DETAILED OUTPUT OF DIAGNOSTICS TO DATABASE REQUESTED

     PRINT OF INCREMENT NUMBER, TIME, ETC., TO THE MESSAGE FILE EVERY     1  INCREMENTS

     ELEMENT OPERATIONS WILL BE CARRIED OUT IN PARALLEL USING   4 PROCESSORS

     PARALLEL CONTACT TRACKING ENABLED


     COLLECTING MODEL CONSTRAINT INFORMATION FOR OVERCONSTRAINT CHECKS

     COLLECTING STEP CONSTRAINT INFORMATION FOR OVERCONSTRAINT CHECKS
  
     ASYNCHRONOUS OUTPUT DATABASE FRAME FLUSH STARTED
  


  INCREMENT     1 STARTS. ATTEMPT NUMBER  1, TIME INCREMENT  0.100    
 
     INITIAL ELEMENT LOAD BALANCE
        COMPUTE NODE   1   PROCESS    NUMBER OF ELEMENTS
                              1            1024
                              2            1125
                              3            768
                              4            768

 ***WARNING: THERE ARE 2 UNCONNECTED REGIONS IN THE MODEL.

  NUMBER OF EQUATIONS =      2088     NUMBER OF FLOATING PT. OPERATIONS =  5.11E+05

  USING THE DIRECT SOLVER WITH   4 PROCESSORS

     CHECK POINT   START OF SOLVER    

     CHECK POINT  END OF SOLVER       

       ELAPSED USER TIME (SEC)      =   0.0000    
       ELAPSED SYSTEM TIME (SEC)    =   0.0000    
       ELAPSED TOTAL CPU TIME (SEC) =   0.0000    
       ELAPSED WALLCLOCK TIME (SEC) =          0

               CONVERGENCE CHECKS FOR EQUILIBRIUM ITERATION     1


 AVERAGE FORCE                      2.273E+06   TIME AVG. FORCE       2.273E+06
 LARGEST RESIDUAL FORCE            -5.589E+04   AT NODE     100075   DOF  3
   INSTANCE: SUSPENSIONBRIDGE                                                                
 LARGEST INCREMENT OF DISP.        -6.210E-02   AT NODE     110075   DOF  1
   INSTANCE: SUSPENSIONBRIDGE                                                                
 LARGEST CORRECTION TO DISP.       -6.210E-02   AT NODE     110075   DOF  1
   INSTANCE: SUSPENSIONBRIDGE                                                                
          FORCE     EQUILIBRIUM NOT ACHIEVED WITHIN TOLERANCE.

 AVERAGE MOMENT                     4.703E+06   TIME AVG. MOMENT      4.703E+06
 LARGEST RESIDUAL MOMENT            3.652E+03   AT NODE     200038   DOF  5
   INSTANCE: SUSPENSIONBRIDGE                                                                
 LARGEST INCREMENT OF ROTATION     -2.804E-04   AT NODE     110075   DOF  5
   INSTANCE: SUSPENSIONBRIDGE                                                                
 LARGEST CORRECTION TO ROTATION    -2.804E-04   AT NODE     110075   DOF  5
   INSTANCE: SUSPENSIONBRIDGE                                                                
 ESTIMATE OF ROTATION CORRECTION    8.202E-07
 MOMENT    EQUILIB. ACCEPTED BASED ON SMALL RESIDUAL AND ESTIMATED CORRECTION

  NUMBER OF EQUATIONS =      2088     NUMBER OF FLOATING PT. OPERATIONS =  5.11E+05

  USING THE DIRECT SOLVER WITH   4 PROCESSORS

     CHECK POINT   START OF SOLVER    

     CHECK POINT  END OF SOLVER       

       ELAPSED USER TIME (SEC)      =   0.0000    
       ELAPSED SYSTEM TIME (SEC)    =   0.0000    
       ELAPSED TOTAL CPU TIME (SEC) =   0.0000    
       ELAPSED WALLCLOCK TIME (SEC) =          0

               CONVERGENCE CHECKS FOR EQUILIBRIUM ITERATION     2


 AVERAGE FORCE                      2.276E+06   TIME AVG. FORCE       2.276E+06
 LARGEST RESIDUAL FORCE             -72.5       AT NODE     110075   DOF  3
   INSTANCE: SUSPENSIONBRIDGE                                                                
 LARGEST INCREMENT OF DISP.        -6.453E-02   AT NODE     100075   DOF  1
   INSTANCE: SUSPENSIONBRIDGE                                                                
 LARGEST CORRECTION TO DISP.       -2.430E-03   AT NODE     100075   DOF  1
   INSTANCE: SUSPENSIONBRIDGE                                                                
 ESTIMATE OF DISP.    CORRECTION   -3.155E-06
 FORCE     EQUILIB. ACCEPTED BASED ON SMALL RESIDUAL AND ESTIMATED CORRECTION

 AVERAGE MOMENT                     4.846E+06   TIME AVG. MOMENT      4.846E+06
 LARGEST RESIDUAL MOMENT             55.5       AT NODE     100058   DOF  6
   INSTANCE: SUSPENSIONBRIDGE                                                                
 LARGEST INCREMENT OF ROTATION     -2.906E-04   AT NODE     110075   DOF  5
   INSTANCE: SUSPENSIONBRIDGE                                                                
 LARGEST CORRECTION TO ROTATION     1.012E-05   AT NODE     210075   DOF  5
   INSTANCE: SUSPENSIONBRIDGE                                                                
 ESTIMATE OF ROTATION CORRECTION    1.538E-07
 MOMENT    EQUILIB. ACCEPTED BASED ON SMALL RESIDUAL AND ESTIMATED CORRECTION

 ITERATION SUMMARY FOR THE INCREMENT:   2 TOTAL ITERATIONS, OF WHICH
   0 ARE SEVERE DISCONTINUITY ITERATIONS AND  2 ARE EQUILIBRIUM ITERATIONS.

 TIME INCREMENT COMPLETED  0.100    ,  FRACTION OF STEP COMPLETED  0.100    
 STEP TIME COMPLETED       0.100    ,  TOTAL TIME COMPLETED        0.100    


  INCREMENT     2 STARTS. ATTEMPT NUMBER  1, TIME INCREMENT  0.100    

  NUMBER OF EQUATIONS =      2088     NUMBER OF FLOATING PT. OPERATIONS =  5.11E+05

  USING THE DIRECT SOLVER WITH   4 PROCESSORS

     CHECK POINT   START OF SOLVER    

     CHECK POINT  END OF SOLVER       

       ELAPSED USER TIME (SEC)      =   0.0000    
       ELAPSED SYSTEM TIME (SEC)    =   0.0000    
       ELAPSED TOTAL CPU TIME (SEC) =   0.0000    
       ELAPSED WALLCLOCK TIME (SEC) =          0

               CONVERGENCE CHECKS FOR EQUILIBRIUM ITERATION     1


 AVERAGE FORCE                      1.083E+07   TIME AVG. FORCE       6.552E+06
 LARGEST RESIDUAL FORCE             -476.       AT NODE     101402   DOF  3
   INSTANCE: SUSPENSIONBRIDGE                                                                
 LARGEST INCREMENT OF DISP.         6.958E-02   AT NODE     200075   DOF  1
   INSTANCE: SUSPENSIONBRIDGE                                                                
 LARGEST CORRECTION TO DISP.        5.057E-03   AT NODE     200075   DOF  1
   INSTANCE: SUSPENSIONBRIDGE                                                                
 ESTIMATE OF DISP.    CORRECTION    2.003E-05
 FORCE     EQUILIB. ACCEPTED BASED ON SMALL RESIDUAL AND ESTIMATED CORRECTION

 AVERAGE MOMENT                     1.089E+07   TIME AVG. MOMENT      7.869E+06
 LARGEST RESIDUAL MOMENT           -4.226E+03   AT NODE     110072   DOF  4
   INSTANCE: SUSPENSIONBRIDGE                                                                
 LARGEST INCREMENT OF ROTATION      3.116E-04   AT NODE     210075   DOF  5
   INSTANCE: SUSPENSIONBRIDGE                                                                
 LARGEST CORRECTION TO ROTATION     2.105E-05   AT NODE     210075   DOF  5
   INSTANCE: SUSPENSIONBRIDGE                                                                
          ROTATION CORRECTION TOO LARGE COMPARED TO ROTATION INCREMENT

  NUMBER OF EQUATIONS =      2088     NUMBER OF FLOATING PT. OPERATIONS =  5.11E+05

  USING THE DIRECT SOLVER WITH   4 PROCESSORS

     CHECK POINT   START OF SOLVER    

     CHECK POINT  END OF SOLVER       

       ELAPSED USER TIME (SEC)      =  0.10000    
       ELAPSED SYSTEM TIME (SEC)    =   0.0000    
       ELAPSED TOTAL CPU TIME (SEC) =  0.10000    
       ELAPSED WALLCLOCK TIME (SEC) =          0

               CONVERGENCE CHECKS FOR EQUILIBRIUM ITERATION     2


 AVERAGE FORCE                      1.083E+07   TIME AVG. FORCE       6.552E+06
 LARGEST RESIDUAL FORCE              1.07       AT NODE     210072   DOF  1
   INSTANCE: SUSPENSIONBRIDGE                                                                
 LARGEST INCREMENT OF DISP.         6.979E-02   AT NODE     210075   DOF  1
   INSTANCE: SUSPENSIONBRIDGE                                                                
 LARGEST CORRECTION TO DISP.       -2.109E-04   AT NODE     110075   DOF  1
   INSTANCE: SUSPENSIONBRIDGE                                                                
          THE FORCE     EQUILIBRIUM EQUATIONS HAVE CONVERGED

 AVERAGE MOMENT                     1.091E+07   TIME AVG. MOMENT      7.876E+06
 LARGEST RESIDUAL MOMENT             9.60       AT NODE     100058   DOF  6
   INSTANCE: SUSPENSIONBRIDGE                                                                
 LARGEST INCREMENT OF ROTATION     -3.125E-04   AT NODE     110075   DOF  5
   INSTANCE: SUSPENSIONBRIDGE                                                                
 LARGEST CORRECTION TO ROTATION    -8.715E-07   AT NODE     110075   DOF  5
   INSTANCE: SUSPENSIONBRIDGE                                                                
          THE MOMENT    EQUILIBRIUM EQUATIONS HAVE CONVERGED
          TIME INCREMENT MAY NOW INCREASE TO    0.150    

 ITERATION SUMMARY FOR THE INCREMENT:   2 TOTAL ITERATIONS, OF WHICH
   0 ARE SEVERE DISCONTINUITY ITERATIONS AND  2 ARE EQUILIBRIUM ITERATIONS.

 TIME INCREMENT COMPLETED  0.100    ,  FRACTION OF STEP COMPLETED  0.200    
 STEP TIME COMPLETED       0.200    ,  TOTAL TIME COMPLETED        0.200    


  INCREMENT     3 STARTS. ATTEMPT NUMBER  1, TIME INCREMENT  0.150    

  NUMBER OF EQUATIONS =      2088     NUMBER OF FLOATING PT. OPERATIONS =  5.11E+05

  USING THE DIRECT SOLVER WITH   4 PROCESSORS

     CHECK POINT   START OF SOLVER    

     CHECK POINT  END OF SOLVER       

       ELAPSED USER TIME (SEC)      =   0.0000    
       ELAPSED SYSTEM TIME (SEC)    =   0.0000    
       ELAPSED TOTAL CPU TIME (SEC) =   0.0000    
       ELAPSED WALLCLOCK TIME (SEC) =          0

               CONVERGENCE CHECKS FOR EQUILIBRIUM ITERATION     1


 AVERAGE FORCE                      1.895E+07   TIME AVG. FORCE       1.068E+07
 LARGEST RESIDUAL FORCE            -1.403E+03   AT NODE     100075   DOF  3
   INSTANCE: SUSPENSIONBRIDGE                                                                
 LARGEST INCREMENT OF DISP.        -0.115       AT NODE     100075   DOF  1
   INSTANCE: SUSPENSIONBRIDGE                                                                
 LARGEST CORRECTION TO DISP.       -1.070E-02   AT NODE     100075   DOF  1
   INSTANCE: SUSPENSIONBRIDGE                                                                
 ESTIMATE OF DISP.    CORRECTION   -5.775E-05
 FORCE     EQUILIB. ACCEPTED BASED ON SMALL RESIDUAL AND ESTIMATED CORRECTION

 AVERAGE MOMENT                     2.002E+07   TIME AVG. MOMENT      1.192E+07
 LARGEST RESIDUAL MOMENT           -9.213E+03   AT NODE     210072   DOF  4
   INSTANCE: SUSPENSIONBRIDGE                                                                
 LARGEST INCREMENT OF ROTATION     -5.132E-04   AT NODE     100075   DOF  5
   INSTANCE: SUSPENSIONBRIDGE                                                                
 LARGEST CORRECTION TO ROTATION    -4.450E-05   AT NODE     100075   DOF  5
   INSTANCE: SUSPENSIONBRIDGE                                                                
          ROTATION CORRECTION TOO LARGE COMPARED TO ROTATION INCREMENT

  NUMBER OF EQUATIONS =      2088     NUMBER OF FLOATING PT. OPERATIONS =  5.11E+05

  USING THE DIRECT SOLVER WITH   4 PROCESSORS

     CHECK POINT   START OF SOLVER    

     CHECK POINT  END OF SOLVER       

       ELAPSED USER TIME (SEC)      =   0.0000    
       ELAPSED SYSTEM TIME (SEC)    =   0.0000    
       ELAPSED TOTAL CPU TIME (SEC) =   0.0000    
       ELAPSED WALLCLOCK TIME (SEC) =          0

               CONVERGENCE CHECKS FOR EQUILIBRIUM ITERATION     2


 AVERAGE FORCE                      1.895E+07   TIME AVG. FORCE       1.068E+07
 LARGEST RESIDUAL FORCE              6.35       AT NODE     210072   DOF  1
   INSTANCE: SUSPENSIONBRIDGE                                                                
 LARGEST INCREMENT OF DISP.        -0.116       AT NODE     110075   DOF  1
   INSTANCE: SUSPENSIONBRIDGE                                                                
 LARGEST CORRECTION TO DISP.       -7.143E-04   AT NODE     110075   DOF  1
   INSTANCE: SUSPENSIONBRIDGE                                                                
          THE FORCE     EQUILIBRIUM EQUATIONS HAVE CONVERGED

 AVERAGE MOMENT                     2.007E+07   TIME AVG. MOMENT      1.194E+07
 LARGEST RESIDUAL MOMENT             56.8       AT NODE     100058   DOF  6
   INSTANCE: SUSPENSIONBRIDGE                                                                
 LARGEST INCREMENT OF ROTATION     -5.162E-04   AT NODE     100075   DOF  5
   INSTANCE: SUSPENSIONBRIDGE                                                                
 LARGEST CORRECTION TO ROTATION    -2.951E-06   AT NODE     110075   DOF  5
   INSTANCE: SUSPENSIONBRIDGE                                                                
          THE MOMENT    EQUILIBRIUM EQUATIONS HAVE CONVERGED
          TIME INCREMENT MAY NOW INCREASE TO    0.225    

 ITERATION SUMMARY FOR THE INCREMENT:   2 TOTAL ITERATIONS, OF WHICH
   0 ARE SEVERE DISCONTINUITY ITERATIONS AND  2 ARE EQUILIBRIUM ITERATIONS.

 TIME INCREMENT COMPLETED  0.150    ,  FRACTION OF STEP COMPLETED  0.350    
 STEP TIME COMPLETED       0.350    ,  TOTAL TIME COMPLETED        0.350    


  INCREMENT     4 STARTS. ATTEMPT NUMBER  1, TIME INCREMENT  0.225    

  NUMBER OF EQUATIONS =      2088     NUMBER OF FLOATING PT. OPERATIONS =  5.11E+05

  USING THE DIRECT SOLVER WITH   4 PROCESSORS

     CHECK POINT   START OF SOLVER    

     CHECK POINT  END OF SOLVER       

       ELAPSED USER TIME (SEC)      =  0.10000    
       ELAPSED SYSTEM TIME (SEC)    =   0.0000    
       ELAPSED TOTAL CPU TIME (SEC) =  0.10000    
       ELAPSED WALLCLOCK TIME (SEC) =          1

               CONVERGENCE CHECKS FOR EQUILIBRIUM ITERATION     1


 AVERAGE FORCE                      3.113E+07   TIME AVG. FORCE       1.580E+07
 LARGEST RESIDUAL FORCE            -9.965E+03   AT NODE     110075   DOF  3
   INSTANCE: SUSPENSIONBRIDGE                                                                
 LARGEST INCREMENT OF DISP.        -0.203       AT NODE     100075   DOF  1
   INSTANCE: SUSPENSIONBRIDGE                                                                
 LARGEST CORRECTION TO DISP.       -2.854E-02   AT NODE     100075   DOF  1
   INSTANCE: SUSPENSIONBRIDGE                                                                
 ESTIMATE OF DISP.    CORRECTION   -4.008E-04
 FORCE     EQUILIB. ACCEPTED BASED ON SMALL RESIDUAL AND ESTIMATED CORRECTION

 AVERAGE MOMENT                     3.564E+07   TIME AVG. MOMENT      1.787E+07
 LARGEST RESIDUAL MOMENT           -2.545E+04   AT NODE     210072   DOF  4
   INSTANCE: SUSPENSIONBRIDGE                                                                
 LARGEST INCREMENT OF ROTATION     -8.928E-04   AT NODE     100075   DOF  5
   INSTANCE: SUSPENSIONBRIDGE                                                                
 LARGEST CORRECTION TO ROTATION    -1.186E-04   AT NODE     100075   DOF  5
   INSTANCE: SUSPENSIONBRIDGE                                                                
          ROTATION CORRECTION TOO LARGE COMPARED TO ROTATION INCREMENT

  NUMBER OF EQUATIONS =      2088     NUMBER OF FLOATING PT. OPERATIONS =  5.11E+05

  USING THE DIRECT SOLVER WITH   4 PROCESSORS

     CHECK POINT   START OF SOLVER    

     CHECK POINT  END OF SOLVER       

       ELAPSED USER TIME (SEC)      =  0.10000    
       ELAPSED SYSTEM TIME (SEC)    =   0.0000    
       ELAPSED TOTAL CPU TIME (SEC) =  0.10000    
       ELAPSED WALLCLOCK TIME (SEC) =          0

               CONVERGENCE CHECKS FOR EQUILIBRIUM ITERATION     2


 AVERAGE FORCE                      3.113E+07   TIME AVG. FORCE       1.580E+07
 LARGEST RESIDUAL FORCE             -122.       AT NODE     100075   DOF  3
   INSTANCE: SUSPENSIONBRIDGE                                                                
 LARGEST INCREMENT OF DISP.         0.206       AT NODE     200075   DOF  1
   INSTANCE: SUSPENSIONBRIDGE                                                                
 LARGEST CORRECTION TO DISP.        3.177E-03   AT NODE     210075   DOF  1
   INSTANCE: SUSPENSIONBRIDGE                                                                
 ESTIMATE OF DISP.    CORRECTION    3.891E-05
 FORCE     EQUILIB. ACCEPTED BASED ON SMALL RESIDUAL AND ESTIMATED CORRECTION

 AVERAGE MOMENT                     3.585E+07   TIME AVG. MOMENT      1.792E+07
 LARGEST RESIDUAL MOMENT             415.       AT NODE     100058   DOF  6
   INSTANCE: SUSPENSIONBRIDGE                                                                
 LARGEST INCREMENT OF ROTATION      9.059E-04   AT NODE     200075   DOF  5
   INSTANCE: SUSPENSIONBRIDGE                                                                
 LARGEST CORRECTION TO ROTATION     1.312E-05   AT NODE     210075   DOF  5
   INSTANCE: SUSPENSIONBRIDGE                                                                
 ESTIMATE OF ROTATION CORRECTION   -2.140E-07
 MOMENT    EQUILIB. ACCEPTED BASED ON SMALL RESIDUAL AND ESTIMATED CORRECTION
          TIME INCREMENT MAY NOW INCREASE TO    0.338    

 ITERATION SUMMARY FOR THE INCREMENT:   2 TOTAL ITERATIONS, OF WHICH
   0 ARE SEVERE DISCONTINUITY ITERATIONS AND  2 ARE EQUILIBRIUM ITERATIONS.

 TIME INCREMENT COMPLETED  0.225    ,  FRACTION OF STEP COMPLETED  0.575    
 STEP TIME COMPLETED       0.575    ,  TOTAL TIME COMPLETED        0.575    


  INCREMENT     5 STARTS. ATTEMPT NUMBER  1, TIME INCREMENT  0.338    

  NUMBER OF EQUATIONS =      2088     NUMBER OF FLOATING PT. OPERATIONS =  5.11E+05

  USING THE DIRECT SOLVER WITH   4 PROCESSORS

     CHECK POINT   START OF SOLVER    

     CHECK POINT  END OF SOLVER       

       ELAPSED USER TIME (SEC)      =   0.0000    
       ELAPSED SYSTEM TIME (SEC)    =   0.0000    
       ELAPSED TOTAL CPU TIME (SEC) =   0.0000    
       ELAPSED WALLCLOCK TIME (SEC) =          0

               CONVERGENCE CHECKS FOR EQUILIBRIUM ITERATION     1


 AVERAGE FORCE                      4.865E+07   TIME AVG. FORCE       2.237E+07
 LARGEST RESIDUAL FORCE            -8.733E+04   AT NODE     110075   DOF  3
   INSTANCE: SUSPENSIONBRIDGE                                                                
 LARGEST INCREMENT OF DISP.        -0.393       AT NODE     110075   DOF  1
   INSTANCE: SUSPENSIONBRIDGE                                                                
 LARGEST CORRECTION TO DISP.       -8.460E-02   AT NODE     110075   DOF  1
   INSTANCE: SUSPENSIONBRIDGE                                                                
 ESTIMATE OF DISP.    CORRECTION   -3.381E-03
 FORCE     EQUILIB. ACCEPTED BASED ON SMALL RESIDUAL AND ESTIMATED CORRECTION

 AVERAGE MOMENT                     6.493E+07   TIME AVG. MOMENT      2.732E+07
 LARGEST RESIDUAL MOMENT           -8.102E+04   AT NODE     110072   DOF  4
   INSTANCE: SUSPENSIONBRIDGE                                                                
 LARGEST INCREMENT OF ROTATION     -1.710E-03   AT NODE     110075   DOF  5
   INSTANCE: SUSPENSIONBRIDGE                                                                
 LARGEST CORRECTION TO ROTATION    -3.510E-04   AT NODE     110075   DOF  5
   INSTANCE: SUSPENSIONBRIDGE                                                                
          ROTATION CORRECTION TOO LARGE COMPARED TO ROTATION INCREMENT

  NUMBER OF EQUATIONS =      2088     NUMBER OF FLOATING PT. OPERATIONS =  5.11E+05

  USING THE DIRECT SOLVER WITH   4 PROCESSORS

     CHECK POINT   START OF SOLVER    

     CHECK POINT  END OF SOLVER       

       ELAPSED USER TIME (SEC)      =   0.0000    
       ELAPSED SYSTEM TIME (SEC)    =   0.0000    
       ELAPSED TOTAL CPU TIME (SEC) =   0.0000    
       ELAPSED WALLCLOCK TIME (SEC) =          0

               CONVERGENCE CHECKS FOR EQUILIBRIUM ITERATION     2


 AVERAGE FORCE                      4.940E+07   TIME AVG. FORCE       2.252E+07
 LARGEST RESIDUAL FORCE            -3.478E+03   AT NODE     100075   DOF  3
   INSTANCE: SUSPENSIONBRIDGE                                                                
 LARGEST INCREMENT OF DISP.         0.410       AT NODE     200075   DOF  1
   INSTANCE: SUSPENSIONBRIDGE                                                                
 LARGEST CORRECTION TO DISP.        1.696E-02   AT NODE     200075   DOF  1
   INSTANCE: SUSPENSIONBRIDGE                                                                
 ESTIMATE OF DISP.    CORRECTION    6.755E-04
 FORCE     EQUILIB. ACCEPTED BASED ON SMALL RESIDUAL AND ESTIMATED CORRECTION

 AVERAGE MOMENT                     6.602E+07   TIME AVG. MOMENT      2.754E+07
 LARGEST RESIDUAL MOMENT           -3.516E+03   AT NODE     110058   DOF  6
   INSTANCE: SUSPENSIONBRIDGE                                                                
 LARGEST INCREMENT OF ROTATION     -1.780E-03   AT NODE     100075   DOF  5
   INSTANCE: SUSPENSIONBRIDGE                                                                
 LARGEST CORRECTION TO ROTATION     7.005E-05   AT NODE     200075   DOF  5
   INSTANCE: SUSPENSIONBRIDGE                                                                
 ESTIMATE OF ROTATION CORRECTION    3.040E-06
 MOMENT    EQUILIB. ACCEPTED BASED ON SMALL RESIDUAL AND ESTIMATED CORRECTION

 ITERATION SUMMARY FOR THE INCREMENT:   2 TOTAL ITERATIONS, OF WHICH
   0 ARE SEVERE DISCONTINUITY ITERATIONS AND  2 ARE EQUILIBRIUM ITERATIONS.

 TIME INCREMENT COMPLETED  0.338    ,  FRACTION OF STEP COMPLETED  0.913    
 STEP TIME COMPLETED       0.913    ,  TOTAL TIME COMPLETED        0.913    


  INCREMENT     6 STARTS. ATTEMPT NUMBER  1, TIME INCREMENT  8.750E-02

  NUMBER OF EQUATIONS =      2088     NUMBER OF FLOATING PT. OPERATIONS =  5.11E+05

  USING THE DIRECT SOLVER WITH   4 PROCESSORS

     CHECK POINT   START OF SOLVER    

     CHECK POINT  END OF SOLVER       

       ELAPSED USER TIME (SEC)      =   0.0000    
       ELAPSED SYSTEM TIME (SEC)    =   0.0000    
       ELAPSED TOTAL CPU TIME (SEC) =   0.0000    
       ELAPSED WALLCLOCK TIME (SEC) =          0

               CONVERGENCE CHECKS FOR EQUILIBRIUM ITERATION     1


 AVERAGE FORCE                      5.414E+07   TIME AVG. FORCE       2.779E+07
 LARGEST RESIDUAL FORCE            -8.575E+03   AT NODE     100075   DOF  3
   INSTANCE: SUSPENSIONBRIDGE                                                                
 LARGEST INCREMENT OF DISP.        -0.133       AT NODE     100075   DOF  1
   INSTANCE: SUSPENSIONBRIDGE                                                                
 LARGEST CORRECTION TO DISP.       -2.655E-02   AT NODE     100075   DOF  1
   INSTANCE: SUSPENSIONBRIDGE                                                                
 ESTIMATE OF DISP.    CORRECTION   -3.084E-04
 FORCE     EQUILIB. ACCEPTED BASED ON SMALL RESIDUAL AND ESTIMATED CORRECTION

 AVERAGE MOMENT                     7.554E+07   TIME AVG. MOMENT      3.554E+07
 LARGEST RESIDUAL MOMENT           -2.649E+04   AT NODE     210072   DOF  4
   INSTANCE: SUSPENSIONBRIDGE                                                                
 LARGEST INCREMENT OF ROTATION     -5.715E-04   AT NODE     110075   DOF  5
   INSTANCE: SUSPENSIONBRIDGE                                                                
 LARGEST CORRECTION TO ROTATION    -1.100E-04   AT NODE     110075   DOF  5
   INSTANCE: SUSPENSIONBRIDGE                                                                
          ROTATION CORRECTION TOO LARGE COMPARED TO ROTATION INCREMENT

  NUMBER OF EQUATIONS =      2088     NUMBER OF FLOATING PT. OPERATIONS =  5.11E+05

  USING THE DIRECT SOLVER WITH   4 PROCESSORS

     CHECK POINT   START OF SOLVER    

     CHECK POINT  END OF SOLVER       

       ELAPSED USER TIME (SEC)      =  0.10000    
       ELAPSED SYSTEM TIME (SEC)    =   0.0000    
       ELAPSED TOTAL CPU TIME (SEC) =  0.10000    
       ELAPSED WALLCLOCK TIME (SEC) =          0

               CONVERGENCE CHECKS FOR EQUILIBRIUM ITERATION     2


 AVERAGE FORCE                      5.414E+07   TIME AVG. FORCE       2.779E+07
 LARGEST RESIDUAL FORCE             -36.9       AT NODE     110072   DOF  1
   INSTANCE: SUSPENSIONBRIDGE                                                                
 LARGEST INCREMENT OF DISP.        -0.134       AT NODE     110075   DOF  1
   INSTANCE: SUSPENSIONBRIDGE                                                                
 LARGEST CORRECTION TO DISP.        1.457E-03   AT NODE     210075   DOF  1
   INSTANCE: SUSPENSIONBRIDGE                                                                
 ESTIMATE OF DISP.    CORRECTION    6.278E-06
 FORCE     EQUILIB. ACCEPTED BASED ON SMALL RESIDUAL AND ESTIMATED CORRECTION

 AVERAGE MOMENT                     7.563E+07   TIME AVG. MOMENT      3.555E+07
 LARGEST RESIDUAL MOMENT            -331.       AT NODE     200058   DOF  6
   INSTANCE: SUSPENSIONBRIDGE                                                                
 LARGEST INCREMENT OF ROTATION     -5.775E-04   AT NODE     110075   DOF  5
   INSTANCE: SUSPENSIONBRIDGE                                                                
 LARGEST CORRECTION TO ROTATION     6.017E-06   AT NODE     200075   DOF  5
   INSTANCE: SUSPENSIONBRIDGE                                                                
 ESTIMATE OF ROTATION CORRECTION    7.522E-08
 MOMENT    EQUILIB. ACCEPTED BASED ON SMALL RESIDUAL AND ESTIMATED CORRECTION

 ITERATION SUMMARY FOR THE INCREMENT:   2 TOTAL ITERATIONS, OF WHICH
   0 ARE SEVERE DISCONTINUITY ITERATIONS AND  2 ARE EQUILIBRIUM ITERATIONS.

 TIME INCREMENT COMPLETED  8.750E-02,  FRACTION OF STEP COMPLETED   1.00    
 STEP TIME COMPLETED        1.00    ,  TOTAL TIME COMPLETED         1.00    
1

   Abaqus 3DEXPERIENCE R2017x                                  Date 30-Mar-2022   Time 11:27:49
   For use by NTNU NORGES TEKNISK NATURVITENSKAPELIGE UNIVERSITET under license from Dassault Systemes or its subsidiary.

                                                                                 
                                                                                 
 STEP    2     INCREMENT     1     STEP TIME    0.00    


                        S T E P       2     S T A T I C   A N A L Y S I S


                                                                                          

     AUTOMATIC TIME CONTROL WITH -
          A SUGGESTED INITIAL TIME INCREMENT OF                1.000E-06
          AND A TOTAL TIME PERIOD OF                            1.00    
          THE MINIMUM TIME INCREMENT ALLOWED IS                1.000E-12
          THE MAXIMUM TIME INCREMENT ALLOWED IS                 1.00    

     LINEAR EQUATION SOLVER TYPE         DIRECT SPARSE

 CONVERGENCE TOLERANCE PARAMETERS FOR FORCE    
     CRITERION FOR RESIDUAL FORCE     FOR A NONLINEAR PROBLEM          5.000E-03
     CRITERION FOR DISP.    CORRECTION IN A NONLINEAR PROBLEM          1.000E-02
     INIT. VALUE OF TIME AVG. FORCE     IS TIME AVG. FORCE     IN PREVIOUS STEP
     AVERAGE FORCE     IS TIME AVERAGE FORCE    
     ALTERNATE CRIT. FOR RESIDUAL FORCE     FOR A NONLINEAR PROBLEM    2.000E-02
     CRITERION FOR ZERO FORCE     RELATIVE TO TIME AVRG. FORCE         1.000E-05
     CRITERION FOR RESIDUAL FORCE     WHEN THERE IS ZERO FLUX          1.000E-05
     CRITERION FOR DISP.    CORRECTION WHEN THERE IS ZERO FLUX         1.000E-03
     CRITERION FOR RESIDUAL FORCE     FOR A LINEAR INCREMENT           1.000E-08
     FIELD CONVERSION RATIO                                             1.00    
     CRITERION FOR ZERO FORCE     REL. TO TIME AVRG. MAX. FORCE        1.000E-05
     CRITERION FOR ZERO DISP.    RELATIVE TO CHARACTERISTIC LENGTH     1.000E-08

 CONVERGENCE TOLERANCE PARAMETERS FOR MOMENT   
     CRITERION FOR RESIDUAL MOMENT    FOR A NONLINEAR PROBLEM          5.000E-03
     CRITERION FOR ROTATION CORRECTION IN A NONLINEAR PROBLEM          1.000E-02
     INIT. VALUE OF TIME AVG. MOMENT    IS TIME AVG. MOMENT    IN PREVIOUS STEP
     AVERAGE MOMENT    IS TIME AVERAGE MOMENT   
     ALTERNATE CRIT. FOR RESIDUAL MOMENT    FOR A NONLINEAR PROBLEM    2.000E-02
     CRITERION FOR ZERO MOMENT    RELATIVE TO TIME AVRG. MOMENT        1.000E-05
     CRITERION FOR RESIDUAL MOMENT    WHEN THERE IS ZERO FLUX          1.000E-05
     CRITERION FOR ROTATION CORRECTION WHEN THERE IS ZERO FLUX         1.000E-03
     CRITERION FOR RESIDUAL MOMENT    FOR A LINEAR INCREMENT           1.000E-08
     FIELD CONVERSION RATIO                                             1.00    
     CRITERION FOR ZERO MOMENT    REL. TO TIME AVRG. MAX. MOMENT       1.000E-05

     VOLUMETRIC STRAIN COMPATIBILITY TOLERANCE FOR HYBRID SOLIDS       1.000E-05
     AXIAL STRAIN COMPATIBILITY TOLERANCE FOR HYBRID BEAMS             1.000E-05
     TRANS. SHEAR STRAIN COMPATIBILITY TOLERANCE FOR HYBRID BEAMS      1.000E-05
     SOFT CONTACT CONSTRAINT COMPATIBILITY TOLERANCE FOR P>P0          5.000E-03
     SOFT CONTACT CONSTRAINT COMPATIBILITY TOLERANCE FOR P=0.0         0.100    
     CONTACT FORCE ERROR TOLERANCE FOR CONVERT SDI=YES                 1.00    
     DISPLACEMENT COMPATIBILITY TOLERANCE FOR DCOUP ELEMENTS           1.000E-05
     ROTATION COMPATIBILITY TOLERANCE FOR DCOUP ELEMENTS               1.000E-05

 EQUILIBRIUM WILL BE CHECKED FOR SEVERE DISCONTINUITY ITERATIONS

 TIME INCREMENTATION CONTROL PARAMETERS:
     FIRST EQUILIBRIUM ITERATION FOR CONSECUTIVE DIVERGENCE CHECK              4
     EQUILIBRIUM ITERATION AT WHICH LOG. CONVERGENCE RATE CHECK BEGINS         8
     EQUILIBRIUM ITERATION AFTER WHICH ALTERNATE RESIDUAL IS USED              9
     MAXIMUM EQUILIBRIUM ITERATIONS ALLOWED                                   16
     EQUILIBRIUM ITERATION COUNT FOR CUT-BACK IN NEXT INCREMENT               10
     MAXIMUM EQUILIB. ITERS IN TWO INCREMENTS FOR TIME INCREMENT INCREASE      4
     MAXIMUM ITERATIONS FOR SEVERE DISCONTINUITIES                            50
     MAXIMUM ATTEMPTS ALLOWED IN AN INCREMENT                                  5
     MAXIMUM DISCON. ITERS IN TWO INCREMENTS FOR TIME INCREMENT INCREASE      50
     MAXIMUM CONTACT AUGMENTATIONS FOR *SURFACE BEHAVIOR,AUGMENTED LAGRANGE   50
     CUT-BACK FACTOR AFTER DIVERGENCE                                 0.2500    
     CUT-BACK FACTOR FOR TOO SLOW CONVERGENCE                         0.5000    
     CUT-BACK FACTOR AFTER TOO MANY EQUILIBRIUM ITERATIONS            0.7500    
     CUT-BACK FACTOR AFTER TOO MANY SEVERE DISCONTINUITY ITERATIONS   0.2500    
     CUT-BACK FACTOR AFTER PROBLEMS IN ELEMENT ASSEMBLY               0.2500    
     INCREASE FACTOR AFTER TWO INCREMENTS THAT CONVERGE QUICKLY        1.500    
     MAX. TIME INCREMENT INCREASE FACTOR ALLOWED                       1.500    
     MAX. TIME INCREMENT INCREASE FACTOR ALLOWED (DYNAMICS)            1.250    
     MAX. TIME INCREMENT INCREASE FACTOR ALLOWED (DIFFUSION)           2.000    
     MINIMUM TIME INCREMENT RATIO FOR EXTRAPOLATION TO OCCUR          0.1000    
     MAX. RATIO OF TIME INCREMENT TO STABILITY LIMIT                   1.000    
     FRACTION OF STABILITY LIMIT FOR NEW TIME INCREMENT               0.9500    
     TIME INCREMENT INCREASE FACTOR BEFORE A TIME POINT                1.000    
     GLOBAL STABILIZATION CONTROL IS NOT USED

          PRINT OF INCREMENT NUMBER, TIME, ETC., EVERY    1  INCREMENTS

     THE MAXIMUM NUMBER OF INCREMENTS IN THIS STEP IS                     100

          LARGE DISPLACEMENT THEORY WILL BE USED

     LINEAR EXTRAPOLATION WILL BE USED

     CHARACTERISTIC ELEMENT LENGTH      15.8    

     DETAILS REGARDING ACTUAL SOLUTION WAVEFRONT REQUESTED

     DETAILED OUTPUT OF DIAGNOSTICS TO DATABASE REQUESTED

     PRINT OF INCREMENT NUMBER, TIME, ETC., TO THE MESSAGE FILE EVERY     1  INCREMENTS

     ELEMENT OPERATIONS WILL BE CARRIED OUT IN PARALLEL USING   4 PROCESSORS

     COLLECTING STEP CONSTRAINT INFORMATION FOR OVERCONSTRAINT CHECKS
  
     ASYNCHRONOUS OUTPUT DATABASE FRAME FLUSH STARTED
  


  INCREMENT     1 STARTS. ATTEMPT NUMBER  1, TIME INCREMENT  1.000E-06
 
     INITIAL ELEMENT LOAD BALANCE
        COMPUTE NODE   1   PROCESS    NUMBER OF ELEMENTS
                              1            1024
                              2            768
                              3            1125
                              4            768

  NUMBER OF EQUATIONS =      5588     NUMBER OF FLOATING PT. OPERATIONS =  1.47E+06

  USING THE DIRECT SOLVER WITH   4 PROCESSORS

     CHECK POINT   START OF SOLVER    

     CHECK POINT  END OF SOLVER       

       ELAPSED USER TIME (SEC)      =  0.10000    
       ELAPSED SYSTEM TIME (SEC)    =   0.0000    
       ELAPSED TOTAL CPU TIME (SEC) =  0.10000    
       ELAPSED WALLCLOCK TIME (SEC) =          0

               CONVERGENCE CHECKS FOR EQUILIBRIUM ITERATION     1


 AVERAGE FORCE                      2.693E+07   TIME AVG. FORCE       2.693E+07
 LARGEST RESIDUAL FORCE            -3.664E+06   AT NODE      10051   DOF  3
   INSTANCE: SUSPENSIONBRIDGE                                                                
 LARGEST INCREMENT OF DISP.         -2.49       AT NODE      10024   DOF  3
   INSTANCE: SUSPENSIONBRIDGE                                                                
 LARGEST CORRECTION TO DISP.        -2.49       AT NODE      10024   DOF  3
   INSTANCE: SUSPENSIONBRIDGE                                                                
          FORCE     EQUILIBRIUM NOT ACHIEVED WITHIN TOLERANCE.

 AVERAGE MOMENT                     5.778E+07   TIME AVG. MOMENT      5.778E+07
 LARGEST RESIDUAL MOMENT            3.032E+05   AT NODE      10084   DOF  5
   INSTANCE: SUSPENSIONBRIDGE                                                                
 LARGEST INCREMENT OF ROTATION      1.193E-02   AT NODE      10001   DOF  5
   INSTANCE: SUSPENSIONBRIDGE                                                                
 LARGEST CORRECTION TO ROTATION     1.193E-02   AT NODE      10001   DOF  5
   INSTANCE: SUSPENSIONBRIDGE                                                                
          MOMENT    EQUILIBRIUM NOT ACHIEVED WITHIN TOLERANCE.

  NUMBER OF EQUATIONS =      5588     NUMBER OF FLOATING PT. OPERATIONS =  1.47E+06

  USING THE DIRECT SOLVER WITH   4 PROCESSORS

     CHECK POINT   START OF SOLVER    

     CHECK POINT  END OF SOLVER       

       ELAPSED USER TIME (SEC)      =  0.10000    
       ELAPSED SYSTEM TIME (SEC)    =   0.0000    
       ELAPSED TOTAL CPU TIME (SEC) =  0.10000    
       ELAPSED WALLCLOCK TIME (SEC) =          1

               CONVERGENCE CHECKS FOR EQUILIBRIUM ITERATION     2


 AVERAGE FORCE                      3.945E+07   TIME AVG. FORCE       3.945E+07
 LARGEST RESIDUAL FORCE            -1.003E+04   AT NODE     100075   DOF  3
   INSTANCE: SUSPENSIONBRIDGE                                                                
 LARGEST INCREMENT OF DISP.         -2.47       AT NODE      10024   DOF  3
   INSTANCE: SUSPENSIONBRIDGE                                                                
 LARGEST CORRECTION TO DISP.        8.972E-02   AT NODE      10112   DOF  3
   INSTANCE: SUSPENSIONBRIDGE                                                                
          DISP.    CORRECTION TOO LARGE COMPARED TO DISP.    INCREMENT

 AVERAGE MOMENT                     7.457E+07   TIME AVG. MOMENT      7.457E+07
 LARGEST RESIDUAL MOMENT           -1.395E+04   AT NODE      10156   DOF  5
   INSTANCE: SUSPENSIONBRIDGE                                                                
 LARGEST INCREMENT OF ROTATION      1.190E-02   AT NODE      10001   DOF  5
   INSTANCE: SUSPENSIONBRIDGE                                                                
 LARGEST CORRECTION TO ROTATION    -5.079E-04   AT NODE      10065   DOF  5
   INSTANCE: SUSPENSIONBRIDGE                                                                
          ROTATION CORRECTION TOO LARGE COMPARED TO ROTATION INCREMENT

  NUMBER OF EQUATIONS =      5588     NUMBER OF FLOATING PT. OPERATIONS =  1.47E+06

  USING THE DIRECT SOLVER WITH   4 PROCESSORS

     CHECK POINT   START OF SOLVER    

     CHECK POINT  END OF SOLVER       

       ELAPSED USER TIME (SEC)      =  0.10000    
       ELAPSED SYSTEM TIME (SEC)    =  0.10000    
       ELAPSED TOTAL CPU TIME (SEC) =  0.20000    
       ELAPSED WALLCLOCK TIME (SEC) =          0

               CONVERGENCE CHECKS FOR EQUILIBRIUM ITERATION     3


 AVERAGE FORCE                      2.860E+07   TIME AVG. FORCE       2.860E+07
 LARGEST RESIDUAL FORCE            -4.002E+05   AT NODE      20051   DOF  3
   INSTANCE: SUSPENSIONBRIDGE                                                                
 LARGEST INCREMENT OF DISP.         -1.67       AT NODE      10024   DOF  3
   INSTANCE: SUSPENSIONBRIDGE                                                                
 LARGEST CORRECTION TO DISP.        0.805       AT NODE      10024   DOF  3
   INSTANCE: SUSPENSIONBRIDGE                                                                
          FORCE     EQUILIBRIUM NOT ACHIEVED WITHIN TOLERANCE.

 AVERAGE MOMENT                     7.497E+07   TIME AVG. MOMENT      7.497E+07
 LARGEST RESIDUAL MOMENT            3.239E+04   AT NODE      20084   DOF  5
   INSTANCE: SUSPENSIONBRIDGE                                                                
 LARGEST INCREMENT OF ROTATION      8.106E-03   AT NODE      20001   DOF  5
   INSTANCE: SUSPENSIONBRIDGE                                                                
 LARGEST CORRECTION TO ROTATION    -3.791E-03   AT NODE      10001   DOF  5
   INSTANCE: SUSPENSIONBRIDGE                                                                
          ROTATION CORRECTION TOO LARGE COMPARED TO ROTATION INCREMENT

  NUMBER OF EQUATIONS =      5588     NUMBER OF FLOATING PT. OPERATIONS =  1.47E+06

  USING THE DIRECT SOLVER WITH   4 PROCESSORS

     CHECK POINT   START OF SOLVER    

     CHECK POINT  END OF SOLVER       

       ELAPSED USER TIME (SEC)      =  0.10000    
       ELAPSED SYSTEM TIME (SEC)    =   0.0000    
       ELAPSED TOTAL CPU TIME (SEC) =  0.10000    
       ELAPSED WALLCLOCK TIME (SEC) =          0

               CONVERGENCE CHECKS FOR EQUILIBRIUM ITERATION     4


 AVERAGE FORCE                      4.352E+07   TIME AVG. FORCE       4.352E+07
 LARGEST RESIDUAL FORCE            -1.287E+03   AT NODE      20023   DOF  1
   INSTANCE: SUSPENSIONBRIDGE                                                                
 LARGEST INCREMENT OF DISP.         -1.63       AT NODE      10024   DOF  3
   INSTANCE: SUSPENSIONBRIDGE                                                                
 LARGEST CORRECTION TO DISP.        4.113E-02   AT NODE      10025   DOF  3
   INSTANCE: SUSPENSIONBRIDGE                                                                
 ESTIMATE OF DISP.    CORRECTION    5.274E-03
 FORCE     EQUILIB. ACCEPTED BASED ON SMALL RESIDUAL AND ESTIMATED CORRECTION

 AVERAGE MOMENT                     7.624E+07   TIME AVG. MOMENT      7.624E+07
 LARGEST RESIDUAL MOMENT             581.       AT NODE     100072   DOF  6
   INSTANCE: SUSPENSIONBRIDGE                                                                
 LARGEST INCREMENT OF ROTATION      8.029E-03   AT NODE      20001   DOF  5
   INSTANCE: SUSPENSIONBRIDGE                                                                
 LARGEST CORRECTION TO ROTATION    -2.333E-04   AT NODE      10021   DOF  5
   INSTANCE: SUSPENSIONBRIDGE                                                                
 ESTIMATE OF ROTATION CORRECTION    9.718E-06
 MOMENT    EQUILIB. ACCEPTED BASED ON SMALL RESIDUAL AND ESTIMATED CORRECTION

 ITERATION SUMMARY FOR THE INCREMENT:   4 TOTAL ITERATIONS, OF WHICH
   0 ARE SEVERE DISCONTINUITY ITERATIONS AND  4 ARE EQUILIBRIUM ITERATIONS.

 TIME INCREMENT COMPLETED  1.000E-06,  FRACTION OF STEP COMPLETED  1.000E-06
 STEP TIME COMPLETED       1.000E-06,  TOTAL TIME COMPLETED         1.00    


  INCREMENT     2 STARTS. ATTEMPT NUMBER  1, TIME INCREMENT  1.000E-06

  NUMBER OF EQUATIONS =      5588     NUMBER OF FLOATING PT. OPERATIONS =  1.47E+06

  USING THE DIRECT SOLVER WITH   4 PROCESSORS

     CHECK POINT   START OF SOLVER    

     CHECK POINT  END OF SOLVER       

       ELAPSED USER TIME (SEC)      =  0.10000    
       ELAPSED SYSTEM TIME (SEC)    =   0.0000    
       ELAPSED TOTAL CPU TIME (SEC) =  0.10000    
       ELAPSED WALLCLOCK TIME (SEC) =          0

               CONVERGENCE CHECKS FOR EQUILIBRIUM ITERATION     1


 AVERAGE FORCE                      2.762E+07   TIME AVG. FORCE       3.557E+07
 LARGEST RESIDUAL FORCE            -1.304E+06   AT NODE      10051   DOF  3
   INSTANCE: SUSPENSIONBRIDGE                                                                
 LARGEST INCREMENT OF DISP.        -0.268       AT NODE      10074   DOF  3
   INSTANCE: SUSPENSIONBRIDGE                                                                
 LARGEST CORRECTION TO DISP.         1.39       AT NODE      10024   DOF  3
   INSTANCE: SUSPENSIONBRIDGE                                                                
          FORCE     EQUILIBRIUM NOT ACHIEVED WITHIN TOLERANCE.

 AVERAGE MOMENT                     6.866E+07   TIME AVG. MOMENT      7.245E+07
 LARGEST RESIDUAL MOMENT            2.542E+05   AT NODE      20084   DOF  5
   INSTANCE: SUSPENSIONBRIDGE                                                                
 LARGEST INCREMENT OF ROTATION     -1.003E-03   AT NODE      20219   DOF  5
   INSTANCE: SUSPENSIONBRIDGE                                                                
 LARGEST CORRECTION TO ROTATION    -7.055E-03   AT NODE      20001   DOF  5
   INSTANCE: SUSPENSIONBRIDGE                                                                
          ROTATION CORRECTION TOO LARGE COMPARED TO ROTATION INCREMENT

  NUMBER OF EQUATIONS =      5588     NUMBER OF FLOATING PT. OPERATIONS =  1.47E+06

  USING THE DIRECT SOLVER WITH   4 PROCESSORS

     CHECK POINT   START OF SOLVER    

     CHECK POINT  END OF SOLVER       

       ELAPSED USER TIME (SEC)      =  0.10000    
       ELAPSED SYSTEM TIME (SEC)    =  0.10000    
       ELAPSED TOTAL CPU TIME (SEC) =  0.20000    
       ELAPSED WALLCLOCK TIME (SEC) =          0

               CONVERGENCE CHECKS FOR EQUILIBRIUM ITERATION     2


 AVERAGE FORCE                      4.389E+07   TIME AVG. FORCE       4.371E+07
 LARGEST RESIDUAL FORCE            -1.258E+03   AT NODE      10023   DOF  1
   INSTANCE: SUSPENSIONBRIDGE                                                                
 LARGEST INCREMENT OF DISP.         0.278       AT NODE      20112   DOF  3
   INSTANCE: SUSPENSIONBRIDGE                                                                
 LARGEST CORRECTION TO DISP.        3.382E-02   AT NODE      20114   DOF  3
   INSTANCE: SUSPENSIONBRIDGE                                                                
 ESTIMATE OF DISP.    CORRECTION    3.264E-05
 FORCE     EQUILIB. ACCEPTED BASED ON SMALL RESIDUAL AND ESTIMATED CORRECTION

 AVERAGE MOMENT                     7.642E+07   TIME AVG. MOMENT      7.633E+07
 LARGEST RESIDUAL MOMENT            2.069E+03   AT NODE     100072   DOF  6
   INSTANCE: SUSPENSIONBRIDGE                                                                
 LARGEST INCREMENT OF ROTATION     -9.860E-04   AT NODE      20219   DOF  5
   INSTANCE: SUSPENSIONBRIDGE                                                                
 LARGEST CORRECTION TO ROTATION    -2.188E-04   AT NODE      10021   DOF  5
   INSTANCE: SUSPENSIONBRIDGE                                                                
 ESTIMATE OF ROTATION CORRECTION   -1.780E-06
 MOMENT    EQUILIB. ACCEPTED BASED ON SMALL RESIDUAL AND ESTIMATED CORRECTION
          TIME INCREMENT MAY NOW INCREASE TO    1.500E-06

 ITERATION SUMMARY FOR THE INCREMENT:   2 TOTAL ITERATIONS, OF WHICH
   0 ARE SEVERE DISCONTINUITY ITERATIONS AND  2 ARE EQUILIBRIUM ITERATIONS.

 TIME INCREMENT COMPLETED  1.000E-06,  FRACTION OF STEP COMPLETED  2.000E-06
 STEP TIME COMPLETED       2.000E-06,  TOTAL TIME COMPLETED         1.00    


  INCREMENT     3 STARTS. ATTEMPT NUMBER  1, TIME INCREMENT  1.500E-06

  NUMBER OF EQUATIONS =      5588     NUMBER OF FLOATING PT. OPERATIONS =  1.47E+06

  USING THE DIRECT SOLVER WITH   4 PROCESSORS

     CHECK POINT   START OF SOLVER    

     CHECK POINT  END OF SOLVER       

       ELAPSED USER TIME (SEC)      =  0.10000    
       ELAPSED SYSTEM TIME (SEC)    =   0.0000    
       ELAPSED TOTAL CPU TIME (SEC) =  0.10000    
       ELAPSED WALLCLOCK TIME (SEC) =          0

               CONVERGENCE CHECKS FOR EQUILIBRIUM ITERATION     1


 AVERAGE FORCE                      2.961E+07   TIME AVG. FORCE       3.901E+07
 LARGEST RESIDUAL FORCE            -1.244E+05   AT NODE      20051   DOF  3
   INSTANCE: SUSPENSIONBRIDGE                                                                
 LARGEST INCREMENT OF DISP.         0.323       AT NODE      10022   DOF  3
   INSTANCE: SUSPENSIONBRIDGE                                                                
 LARGEST CORRECTION TO DISP.        0.636       AT NODE      20024   DOF  3
   INSTANCE: SUSPENSIONBRIDGE                                                                
          DISP.    CORRECTION TOO LARGE COMPARED TO DISP.    INCREMENT

 AVERAGE MOMENT                     7.522E+07   TIME AVG. MOMENT      7.596E+07
 LARGEST RESIDUAL MOMENT            4.594E+04   AT NODE      20066   DOF  5
   INSTANCE: SUSPENSIONBRIDGE                                                                
 LARGEST INCREMENT OF ROTATION     -1.538E-03   AT NODE      10003   DOF  5
   INSTANCE: SUSPENSIONBRIDGE                                                                
 LARGEST CORRECTION TO ROTATION    -2.955E-03   AT NODE      10001   DOF  5
   INSTANCE: SUSPENSIONBRIDGE                                                                
          ROTATION CORRECTION TOO LARGE COMPARED TO ROTATION INCREMENT

  NUMBER OF EQUATIONS =      5588     NUMBER OF FLOATING PT. OPERATIONS =  1.47E+06

  USING THE DIRECT SOLVER WITH   4 PROCESSORS

     CHECK POINT   START OF SOLVER    

     CHECK POINT  END OF SOLVER       

       ELAPSED USER TIME (SEC)      =  0.10000    
       ELAPSED SYSTEM TIME (SEC)    =   0.0000    
       ELAPSED TOTAL CPU TIME (SEC) =  0.10000    
       ELAPSED WALLCLOCK TIME (SEC) =          0

               CONVERGENCE CHECKS FOR EQUILIBRIUM ITERATION     2


 AVERAGE FORCE                      4.666E+07   TIME AVG. FORCE       4.469E+07
 LARGEST RESIDUAL FORCE             -322.       AT NODE      20023   DOF  1
   INSTANCE: SUSPENSIONBRIDGE                                                                
 LARGEST INCREMENT OF DISP.         0.342       AT NODE      10023   DOF  3
   INSTANCE: SUSPENSIONBRIDGE                                                                
 LARGEST CORRECTION TO DISP.        2.182E-02   AT NODE      10025   DOF  3
   INSTANCE: SUSPENSIONBRIDGE                                                                
 ESTIMATE OF DISP.    CORRECTION    1.312E-04
 FORCE     EQUILIB. ACCEPTED BASED ON SMALL RESIDUAL AND ESTIMATED CORRECTION

 AVERAGE MOMENT                     7.622E+07   TIME AVG. MOMENT      7.629E+07
 LARGEST RESIDUAL MOMENT            -372.       AT NODE     110072   DOF  6
   INSTANCE: SUSPENSIONBRIDGE                                                                
 LARGEST INCREMENT OF ROTATION     -1.580E-03   AT NODE      10003   DOF  5
   INSTANCE: SUSPENSIONBRIDGE                                                                
 LARGEST CORRECTION TO ROTATION    -1.255E-04   AT NODE      10020   DOF  5
   INSTANCE: SUSPENSIONBRIDGE                                                                
 ESTIMATE OF ROTATION CORRECTION    1.017E-06
 MOMENT    EQUILIB. ACCEPTED BASED ON SMALL RESIDUAL AND ESTIMATED CORRECTION
          TIME INCREMENT MAY NOW INCREASE TO    2.250E-06

 ITERATION SUMMARY FOR THE INCREMENT:   2 TOTAL ITERATIONS, OF WHICH
   0 ARE SEVERE DISCONTINUITY ITERATIONS AND  2 ARE EQUILIBRIUM ITERATIONS.

 TIME INCREMENT COMPLETED  1.500E-06,  FRACTION OF STEP COMPLETED  3.500E-06
 STEP TIME COMPLETED       3.500E-06,  TOTAL TIME COMPLETED         1.00    


  INCREMENT     4 STARTS. ATTEMPT NUMBER  1, TIME INCREMENT  2.250E-06

  NUMBER OF EQUATIONS =      5588     NUMBER OF FLOATING PT. OPERATIONS =  1.47E+06

  USING THE DIRECT SOLVER WITH   4 PROCESSORS

     CHECK POINT   START OF SOLVER    

     CHECK POINT  END OF SOLVER       

       ELAPSED USER TIME (SEC)      =   0.0000    
       ELAPSED SYSTEM TIME (SEC)    =   0.0000    
       ELAPSED TOTAL CPU TIME (SEC) =   0.0000    
       ELAPSED WALLCLOCK TIME (SEC) =          0

               CONVERGENCE CHECKS FOR EQUILIBRIUM ITERATION     1


 AVERAGE FORCE                      3.426E+07   TIME AVG. FORCE       4.208E+07
 LARGEST RESIDUAL FORCE            -1.856E+05   AT NODE      20051   DOF  3
   INSTANCE: SUSPENSIONBRIDGE                                                                
 LARGEST INCREMENT OF DISP.        -0.295       AT NODE      10195   DOF  3
   INSTANCE: SUSPENSIONBRIDGE                                                                
 LARGEST CORRECTION TO DISP.       -0.596       AT NODE      10024   DOF  3
   INSTANCE: SUSPENSIONBRIDGE                                                                
          DISP.    CORRECTION TOO LARGE COMPARED TO DISP.    INCREMENT

 AVERAGE MOMENT                     7.614E+07   TIME AVG. MOMENT      7.626E+07
 LARGEST RESIDUAL MOMENT            1.057E+04   AT NODE      10075   DOF  5
   INSTANCE: SUSPENSIONBRIDGE                                                                
 LARGEST INCREMENT OF ROTATION     -1.527E-03   AT NODE      10219   DOF  5
   INSTANCE: SUSPENSIONBRIDGE                                                                
 LARGEST CORRECTION TO ROTATION     2.935E-03   AT NODE      20001   DOF  5
   INSTANCE: SUSPENSIONBRIDGE                                                                
          ROTATION CORRECTION TOO LARGE COMPARED TO ROTATION INCREMENT

  NUMBER OF EQUATIONS =      5588     NUMBER OF FLOATING PT. OPERATIONS =  1.47E+06

  USING THE DIRECT SOLVER WITH   4 PROCESSORS

     CHECK POINT   START OF SOLVER    

     CHECK POINT  END OF SOLVER       

       ELAPSED USER TIME (SEC)      =  0.10000    
       ELAPSED SYSTEM TIME (SEC)    =   0.0000    
       ELAPSED TOTAL CPU TIME (SEC) =  0.10000    
       ELAPSED WALLCLOCK TIME (SEC) =          1

               CONVERGENCE CHECKS FOR EQUILIBRIUM ITERATION     2


 AVERAGE FORCE                      4.389E+07   TIME AVG. FORCE       4.449E+07
 LARGEST RESIDUAL FORCE              64.0       AT NODE      10198   DOF  1
   INSTANCE: SUSPENSIONBRIDGE                                                                
 LARGEST INCREMENT OF DISP.        -0.283       AT NODE      10195   DOF  3
   INSTANCE: SUSPENSIONBRIDGE                                                                
 LARGEST CORRECTION TO DISP.        1.253E-02   AT NODE      10195   DOF  3
   INSTANCE: SUSPENSIONBRIDGE                                                                
 ESTIMATE OF DISP.    CORRECTION   -5.829E-06
 FORCE     EQUILIB. ACCEPTED BASED ON SMALL RESIDUAL AND ESTIMATED CORRECTION

 AVERAGE MOMENT                     7.637E+07   TIME AVG. MOMENT      7.631E+07
 LARGEST RESIDUAL MOMENT            -360.       AT NODE     110072   DOF  6
   INSTANCE: SUSPENSIONBRIDGE                                                                
 LARGEST INCREMENT OF ROTATION     -1.501E-03   AT NODE      10219   DOF  5
   INSTANCE: SUSPENSIONBRIDGE                                                                
 LARGEST CORRECTION TO ROTATION     5.839E-05   AT NODE      10200   DOF  5
   INSTANCE: SUSPENSIONBRIDGE                                                                
 ESTIMATE OF ROTATION CORRECTION   -1.992E-06
 MOMENT    EQUILIB. ACCEPTED BASED ON SMALL RESIDUAL AND ESTIMATED CORRECTION
          TIME INCREMENT MAY NOW INCREASE TO    3.375E-06

 ITERATION SUMMARY FOR THE INCREMENT:   2 TOTAL ITERATIONS, OF WHICH
   0 ARE SEVERE DISCONTINUITY ITERATIONS AND  2 ARE EQUILIBRIUM ITERATIONS.

 TIME INCREMENT COMPLETED  2.250E-06,  FRACTION OF STEP COMPLETED  5.750E-06
 STEP TIME COMPLETED       5.750E-06,  TOTAL TIME COMPLETED         1.00    


  INCREMENT     5 STARTS. ATTEMPT NUMBER  1, TIME INCREMENT  3.375E-06

  NUMBER OF EQUATIONS =      5588     NUMBER OF FLOATING PT. OPERATIONS =  1.47E+06

  USING THE DIRECT SOLVER WITH   4 PROCESSORS

     CHECK POINT   START OF SOLVER    

     CHECK POINT  END OF SOLVER       

       ELAPSED USER TIME (SEC)      =  0.10000    
       ELAPSED SYSTEM TIME (SEC)    =   0.0000    
       ELAPSED TOTAL CPU TIME (SEC) =  0.10000    
       ELAPSED WALLCLOCK TIME (SEC) =          0

               CONVERGENCE CHECKS FOR EQUILIBRIUM ITERATION     1


 AVERAGE FORCE                      3.372E+07   TIME AVG. FORCE       4.234E+07
 LARGEST RESIDUAL FORCE            -1.697E+04   AT NODE      20169   DOF  3
   INSTANCE: SUSPENSIONBRIDGE                                                                
 LARGEST INCREMENT OF DISP.        -0.207       AT NODE      10192   DOF  3
   INSTANCE: SUSPENSIONBRIDGE                                                                
 LARGEST CORRECTION TO DISP.        0.221       AT NODE      10197   DOF  3
   INSTANCE: SUSPENSIONBRIDGE                                                                
          DISP.    CORRECTION TOO LARGE COMPARED TO DISP.    INCREMENT

 AVERAGE MOMENT                     7.656E+07   TIME AVG. MOMENT      7.636E+07
 LARGEST RESIDUAL MOMENT            4.283E+03   AT NODE      20093   DOF  5
   INSTANCE: SUSPENSIONBRIDGE                                                                
 LARGEST INCREMENT OF ROTATION      1.121E-03   AT NODE      10173   DOF  5
   INSTANCE: SUSPENSIONBRIDGE                                                                
 LARGEST CORRECTION TO ROTATION     1.181E-03   AT NODE      10219   DOF  5
   INSTANCE: SUSPENSIONBRIDGE                                                                
          ROTATION CORRECTION TOO LARGE COMPARED TO ROTATION INCREMENT

  NUMBER OF EQUATIONS =      5588     NUMBER OF FLOATING PT. OPERATIONS =  1.47E+06

  USING THE DIRECT SOLVER WITH   4 PROCESSORS

     CHECK POINT   START OF SOLVER    

     CHECK POINT  END OF SOLVER       

       ELAPSED USER TIME (SEC)      =   0.0000    
       ELAPSED SYSTEM TIME (SEC)    =   0.0000    
       ELAPSED TOTAL CPU TIME (SEC) =   0.0000    
       ELAPSED WALLCLOCK TIME (SEC) =          0

               CONVERGENCE CHECKS FOR EQUILIBRIUM ITERATION     2


 AVERAGE FORCE                      4.389E+07   TIME AVG. FORCE       4.437E+07
 LARGEST RESIDUAL FORCE             -37.6       AT NODE      10051   DOF  3
   INSTANCE: SUSPENSIONBRIDGE                                                                
 LARGEST INCREMENT OF DISP.        -0.210       AT NODE      20193   DOF  3
   INSTANCE: SUSPENSIONBRIDGE                                                                
 LARGEST CORRECTION TO DISP.        8.212E-03   AT NODE      10021   DOF  3
   INSTANCE: SUSPENSIONBRIDGE                                                                
 ESTIMATE OF DISP.    CORRECTION    1.822E-05
 FORCE     EQUILIB. ACCEPTED BASED ON SMALL RESIDUAL AND ESTIMATED CORRECTION

 AVERAGE MOMENT                     7.657E+07   TIME AVG. MOMENT      7.636E+07
 LARGEST RESIDUAL MOMENT             56.0       AT NODE     210072   DOF  6
   INSTANCE: SUSPENSIONBRIDGE                                                                
 LARGEST INCREMENT OF ROTATION      1.127E-03   AT NODE      10173   DOF  5
   INSTANCE: SUSPENSIONBRIDGE                                                                
 LARGEST CORRECTION TO ROTATION     4.540E-05   AT NODE      10032   DOF  5
   INSTANCE: SUSPENSIONBRIDGE                                                                
 ESTIMATE OF ROTATION CORRECTION    5.940E-07
 MOMENT    EQUILIB. ACCEPTED BASED ON SMALL RESIDUAL AND ESTIMATED CORRECTION
          TIME INCREMENT MAY NOW INCREASE TO    5.062E-06

 ITERATION SUMMARY FOR THE INCREMENT:   2 TOTAL ITERATIONS, OF WHICH
   0 ARE SEVERE DISCONTINUITY ITERATIONS AND  2 ARE EQUILIBRIUM ITERATIONS.

 TIME INCREMENT COMPLETED  3.375E-06,  FRACTION OF STEP COMPLETED  9.125E-06
 STEP TIME COMPLETED       9.125E-06,  TOTAL TIME COMPLETED         1.00    


  INCREMENT     6 STARTS. ATTEMPT NUMBER  1, TIME INCREMENT  5.062E-06

  NUMBER OF EQUATIONS =      5588     NUMBER OF FLOATING PT. OPERATIONS =  1.47E+06

  USING THE DIRECT SOLVER WITH   4 PROCESSORS

     CHECK POINT   START OF SOLVER    

     CHECK POINT  END OF SOLVER       

       ELAPSED USER TIME (SEC)      =   0.0000    
       ELAPSED SYSTEM TIME (SEC)    =   0.0000    
       ELAPSED TOTAL CPU TIME (SEC) =   0.0000    
       ELAPSED WALLCLOCK TIME (SEC) =          0

               CONVERGENCE CHECKS FOR EQUILIBRIUM ITERATION     1


 AVERAGE FORCE                      4.108E+07   TIME AVG. FORCE       4.382E+07
 LARGEST RESIDUAL FORCE            -1.186E+03   AT NODE      10169   DOF  3
   INSTANCE: SUSPENSIONBRIDGE                                                                
 LARGEST INCREMENT OF DISP.        -0.316       AT NODE      10195   DOF  3
   INSTANCE: SUSPENSIONBRIDGE                                                                
 LARGEST CORRECTION TO DISP.        4.668E-02   AT NODE      10150   DOF  3
   INSTANCE: SUSPENSIONBRIDGE                                                                
 ESTIMATE OF DISP.    CORRECTION    5.126E-04
 FORCE     EQUILIB. ACCEPTED BASED ON SMALL RESIDUAL AND ESTIMATED CORRECTION

 AVERAGE MOMENT                     7.658E+07   TIME AVG. MOMENT      7.640E+07
 LARGEST RESIDUAL MOMENT            1.930E+03   AT NODE      10075   DOF  5
   INSTANCE: SUSPENSIONBRIDGE                                                                
 LARGEST INCREMENT OF ROTATION     -1.751E-03   AT NODE      10219   DOF  5
   INSTANCE: SUSPENSIONBRIDGE                                                                
 LARGEST CORRECTION TO ROTATION    -2.345E-04   AT NODE      10172   DOF  5
   INSTANCE: SUSPENSIONBRIDGE                                                                
          ROTATION CORRECTION TOO LARGE COMPARED TO ROTATION INCREMENT

  NUMBER OF EQUATIONS =      5588     NUMBER OF FLOATING PT. OPERATIONS =  1.47E+06

  USING THE DIRECT SOLVER WITH   4 PROCESSORS

     CHECK POINT   START OF SOLVER    

     CHECK POINT  END OF SOLVER       

       ELAPSED USER TIME (SEC)      =  0.20000    
       ELAPSED SYSTEM TIME (SEC)    =   0.0000    
       ELAPSED TOTAL CPU TIME (SEC) =  0.20000    
       ELAPSED WALLCLOCK TIME (SEC) =          0

               CONVERGENCE CHECKS FOR EQUILIBRIUM ITERATION     2


 AVERAGE FORCE                      4.384E+07   TIME AVG. FORCE       4.428E+07
 LARGEST RESIDUAL FORCE             -36.2       AT NODE      20169   DOF  3
   INSTANCE: SUSPENSIONBRIDGE                                                                
 LARGEST INCREMENT OF DISP.        -0.315       AT NODE      10194   DOF  3
   INSTANCE: SUSPENSIONBRIDGE                                                                
 LARGEST CORRECTION TO DISP.        7.089E-03   AT NODE      10096   DOF  3
   INSTANCE: SUSPENSIONBRIDGE                                                                
 ESTIMATE OF DISP.    CORRECTION    2.167E-04
 FORCE     EQUILIB. ACCEPTED BASED ON SMALL RESIDUAL AND ESTIMATED CORRECTION

 AVERAGE MOMENT                     7.658E+07   TIME AVG. MOMENT      7.640E+07
 LARGEST RESIDUAL MOMENT            -40.9       AT NODE      10156   DOF  5
   INSTANCE: SUSPENSIONBRIDGE                                                                
 LARGEST INCREMENT OF ROTATION     -1.720E-03   AT NODE      20219   DOF  5
   INSTANCE: SUSPENSIONBRIDGE                                                                
 LARGEST CORRECTION TO ROTATION     3.683E-05   AT NODE      10172   DOF  5
   INSTANCE: SUSPENSIONBRIDGE                                                                
 ESTIMATE OF ROTATION CORRECTION   -7.800E-07
 MOMENT    EQUILIB. ACCEPTED BASED ON SMALL RESIDUAL AND ESTIMATED CORRECTION
          TIME INCREMENT MAY NOW INCREASE TO    7.594E-06

 ITERATION SUMMARY FOR THE INCREMENT:   2 TOTAL ITERATIONS, OF WHICH
   0 ARE SEVERE DISCONTINUITY ITERATIONS AND  2 ARE EQUILIBRIUM ITERATIONS.

 TIME INCREMENT COMPLETED  5.062E-06,  FRACTION OF STEP COMPLETED  1.419E-05
 STEP TIME COMPLETED       1.419E-05,  TOTAL TIME COMPLETED         1.00    


  INCREMENT     7 STARTS. ATTEMPT NUMBER  1, TIME INCREMENT  7.594E-06

  NUMBER OF EQUATIONS =      5588     NUMBER OF FLOATING PT. OPERATIONS =  1.47E+06

  USING THE DIRECT SOLVER WITH   4 PROCESSORS

     CHECK POINT   START OF SOLVER    

     CHECK POINT  END OF SOLVER       

       ELAPSED USER TIME (SEC)      =  0.10000    
       ELAPSED SYSTEM TIME (SEC)    =   0.0000    
       ELAPSED TOTAL CPU TIME (SEC) =  0.10000    
       ELAPSED WALLCLOCK TIME (SEC) =          0

               CONVERGENCE CHECKS FOR EQUILIBRIUM ITERATION     1


 AVERAGE FORCE                      3.300E+07   TIME AVG. FORCE       4.267E+07
 LARGEST RESIDUAL FORCE            -1.305E+04   AT NODE      10051   DOF  3
   INSTANCE: SUSPENSIONBRIDGE                                                                
 LARGEST INCREMENT OF DISP.        -0.330       AT NODE      10194   DOF  3
   INSTANCE: SUSPENSIONBRIDGE                                                                
 LARGEST CORRECTION TO DISP.        0.142       AT NODE      20195   DOF  3
   INSTANCE: SUSPENSIONBRIDGE                                                                
          DISP.    CORRECTION TOO LARGE COMPARED TO DISP.    INCREMENT

 AVERAGE MOMENT                     7.659E+07   TIME AVG. MOMENT      7.643E+07
 LARGEST RESIDUAL MOMENT            5.477E+03   AT NODE      10066   DOF  5
   INSTANCE: SUSPENSIONBRIDGE                                                                
 LARGEST INCREMENT OF ROTATION     -1.793E-03   AT NODE      10219   DOF  5
   INSTANCE: SUSPENSIONBRIDGE                                                                
 LARGEST CORRECTION TO ROTATION     7.866E-04   AT NODE      20219   DOF  5
   INSTANCE: SUSPENSIONBRIDGE                                                                
          ROTATION CORRECTION TOO LARGE COMPARED TO ROTATION INCREMENT

  NUMBER OF EQUATIONS =      5588     NUMBER OF FLOATING PT. OPERATIONS =  1.47E+06

  USING THE DIRECT SOLVER WITH   4 PROCESSORS

     CHECK POINT   START OF SOLVER    

     CHECK POINT  END OF SOLVER       

       ELAPSED USER TIME (SEC)      =  0.20000    
       ELAPSED SYSTEM TIME (SEC)    =   0.0000    
       ELAPSED TOTAL CPU TIME (SEC) =  0.20000    
       ELAPSED WALLCLOCK TIME (SEC) =          0

               CONVERGENCE CHECKS FOR EQUILIBRIUM ITERATION     2


 AVERAGE FORCE                      4.129E+07   TIME AVG. FORCE       4.386E+07
 LARGEST RESIDUAL FORCE             -63.6       AT NODE      20051   DOF  3
   INSTANCE: SUSPENSIONBRIDGE                                                                
 LARGEST INCREMENT OF DISP.        -0.338       AT NODE      10194   DOF  3
   INSTANCE: SUSPENSIONBRIDGE                                                                
 LARGEST CORRECTION TO DISP.        1.385E-02   AT NODE      10112   DOF  3
   INSTANCE: SUSPENSIONBRIDGE                                                                
 ESTIMATE OF DISP.    CORRECTION    6.753E-05
 FORCE     EQUILIB. ACCEPTED BASED ON SMALL RESIDUAL AND ESTIMATED CORRECTION

 AVERAGE MOMENT                     7.653E+07   TIME AVG. MOMENT      7.642E+07
 LARGEST RESIDUAL MOMENT             65.5       AT NODE      10066   DOF  5
   INSTANCE: SUSPENSIONBRIDGE                                                                
 LARGEST INCREMENT OF ROTATION     -1.827E-03   AT NODE      20219   DOF  5
   INSTANCE: SUSPENSIONBRIDGE                                                                
 LARGEST CORRECTION TO ROTATION    -3.733E-05   AT NODE      10046   DOF  5
   INSTANCE: SUSPENSIONBRIDGE                                                                
 ESTIMATE OF ROTATION CORRECTION   -4.464E-07
 MOMENT    EQUILIB. ACCEPTED BASED ON SMALL RESIDUAL AND ESTIMATED CORRECTION
          TIME INCREMENT MAY NOW INCREASE TO    1.139E-05

 ITERATION SUMMARY FOR THE INCREMENT:   2 TOTAL ITERATIONS, OF WHICH
   0 ARE SEVERE DISCONTINUITY ITERATIONS AND  2 ARE EQUILIBRIUM ITERATIONS.

 TIME INCREMENT COMPLETED  7.594E-06,  FRACTION OF STEP COMPLETED  2.178E-05
 STEP TIME COMPLETED       2.178E-05,  TOTAL TIME COMPLETED         1.00    


  INCREMENT     8 STARTS. ATTEMPT NUMBER  1, TIME INCREMENT  1.139E-05

  NUMBER OF EQUATIONS =      5588     NUMBER OF FLOATING PT. OPERATIONS =  1.47E+06

  USING THE DIRECT SOLVER WITH   4 PROCESSORS

     CHECK POINT   START OF SOLVER    

     CHECK POINT  END OF SOLVER       

       ELAPSED USER TIME (SEC)      =   0.0000    
       ELAPSED SYSTEM TIME (SEC)    =   0.0000    
       ELAPSED TOTAL CPU TIME (SEC) =   0.0000    
       ELAPSED WALLCLOCK TIME (SEC) =          1

               CONVERGENCE CHECKS FOR EQUILIBRIUM ITERATION     1


 AVERAGE FORCE                      3.294E+07   TIME AVG. FORCE       4.249E+07
 LARGEST RESIDUAL FORCE            -1.180E+04   AT NODE      10051   DOF  3
   INSTANCE: SUSPENSIONBRIDGE                                                                
 LARGEST INCREMENT OF DISP.        -0.367       AT NODE      20194   DOF  3
   INSTANCE: SUSPENSIONBRIDGE                                                                
 LARGEST CORRECTION TO DISP.        0.140       AT NODE      10194   DOF  3
   INSTANCE: SUSPENSIONBRIDGE                                                                
          DISP.    CORRECTION TOO LARGE COMPARED TO DISP.    INCREMENT

 AVERAGE MOMENT                     7.657E+07   TIME AVG. MOMENT      7.644E+07
 LARGEST RESIDUAL MOMENT           -3.362E+03   AT NODE      20156   DOF  5
   INSTANCE: SUSPENSIONBRIDGE                                                                
 LARGEST INCREMENT OF ROTATION     -2.055E-03   AT NODE      20219   DOF  5
   INSTANCE: SUSPENSIONBRIDGE                                                                
 LARGEST CORRECTION TO ROTATION     6.855E-04   AT NODE      10219   DOF  5
   INSTANCE: SUSPENSIONBRIDGE                                                                
          ROTATION CORRECTION TOO LARGE COMPARED TO ROTATION INCREMENT

  NUMBER OF EQUATIONS =      5588     NUMBER OF FLOATING PT. OPERATIONS =  1.47E+06

  USING THE DIRECT SOLVER WITH   4 PROCESSORS

     CHECK POINT   START OF SOLVER    

     CHECK POINT  END OF SOLVER       

       ELAPSED USER TIME (SEC)      =   0.0000    
       ELAPSED SYSTEM TIME (SEC)    =   0.0000    
       ELAPSED TOTAL CPU TIME (SEC) =   0.0000    
       ELAPSED WALLCLOCK TIME (SEC) =          0

               CONVERGENCE CHECKS FOR EQUILIBRIUM ITERATION     2


 AVERAGE FORCE                      3.631E+07   TIME AVG. FORCE       4.291E+07
 LARGEST RESIDUAL FORCE             -54.7       AT NODE      20051   DOF  3
   INSTANCE: SUSPENSIONBRIDGE                                                                
 LARGEST INCREMENT OF DISP.        -0.377       AT NODE      20194   DOF  3
   INSTANCE: SUSPENSIONBRIDGE                                                                
 LARGEST CORRECTION TO DISP.        1.010E-02   AT NODE      20094   DOF  3
   INSTANCE: SUSPENSIONBRIDGE                                                                
 ESTIMATE OF DISP.    CORRECTION    4.678E-05
 FORCE     EQUILIB. ACCEPTED BASED ON SMALL RESIDUAL AND ESTIMATED CORRECTION

 AVERAGE MOMENT                     7.659E+07   TIME AVG. MOMENT      7.644E+07
 LARGEST RESIDUAL MOMENT            -100.       AT NODE      10156   DOF  5
   INSTANCE: SUSPENSIONBRIDGE                                                                
 LARGEST INCREMENT OF ROTATION     -2.088E-03   AT NODE      20219   DOF  5
   INSTANCE: SUSPENSIONBRIDGE                                                                
 LARGEST CORRECTION TO ROTATION    -4.161E-05   AT NODE      20158   DOF  5
   INSTANCE: SUSPENSIONBRIDGE                                                                
 ESTIMATE OF ROTATION CORRECTION   -1.240E-06
 MOMENT    EQUILIB. ACCEPTED BASED ON SMALL RESIDUAL AND ESTIMATED CORRECTION
          TIME INCREMENT MAY NOW INCREASE TO    1.709E-05

 ITERATION SUMMARY FOR THE INCREMENT:   2 TOTAL ITERATIONS, OF WHICH
   0 ARE SEVERE DISCONTINUITY ITERATIONS AND  2 ARE EQUILIBRIUM ITERATIONS.

 TIME INCREMENT COMPLETED  1.139E-05,  FRACTION OF STEP COMPLETED  3.317E-05
 STEP TIME COMPLETED       3.317E-05,  TOTAL TIME COMPLETED         1.00    


  INCREMENT     9 STARTS. ATTEMPT NUMBER  1, TIME INCREMENT  1.709E-05

  NUMBER OF EQUATIONS =      5588     NUMBER OF FLOATING PT. OPERATIONS =  1.47E+06

  USING THE DIRECT SOLVER WITH   4 PROCESSORS

     CHECK POINT   START OF SOLVER    

     CHECK POINT  END OF SOLVER       

       ELAPSED USER TIME (SEC)      =  0.10000    
       ELAPSED SYSTEM TIME (SEC)    =   0.0000    
       ELAPSED TOTAL CPU TIME (SEC) =  0.10000    
       ELAPSED WALLCLOCK TIME (SEC) =          0

               CONVERGENCE CHECKS FOR EQUILIBRIUM ITERATION     1


 AVERAGE FORCE                      3.133E+07   TIME AVG. FORCE       4.163E+07
 LARGEST RESIDUAL FORCE            -1.670E+04   AT NODE      20051   DOF  3
   INSTANCE: SUSPENSIONBRIDGE                                                                
 LARGEST INCREMENT OF DISP.        -0.407       AT NODE      10194   DOF  3
   INSTANCE: SUSPENSIONBRIDGE                                                                
 LARGEST CORRECTION TO DISP.        0.158       AT NODE      20194   DOF  3
   INSTANCE: SUSPENSIONBRIDGE                                                                
          DISP.    CORRECTION TOO LARGE COMPARED TO DISP.    INCREMENT

 AVERAGE MOMENT                     7.708E+07   TIME AVG. MOMENT      7.651E+07
 LARGEST RESIDUAL MOMENT           -3.358E+03   AT NODE      10156   DOF  5
   INSTANCE: SUSPENSIONBRIDGE                                                                
 LARGEST INCREMENT OF ROTATION     -2.260E-03   AT NODE      10219   DOF  5
   INSTANCE: SUSPENSIONBRIDGE                                                                
 LARGEST CORRECTION TO ROTATION     8.716E-04   AT NODE      20219   DOF  5
   INSTANCE: SUSPENSIONBRIDGE                                                                
          ROTATION CORRECTION TOO LARGE COMPARED TO ROTATION INCREMENT

  NUMBER OF EQUATIONS =      5588     NUMBER OF FLOATING PT. OPERATIONS =  1.47E+06

  USING THE DIRECT SOLVER WITH   4 PROCESSORS

     CHECK POINT   START OF SOLVER    

     CHECK POINT  END OF SOLVER       

       ELAPSED USER TIME (SEC)      =  0.10000    
       ELAPSED SYSTEM TIME (SEC)    =   0.0000    
       ELAPSED TOTAL CPU TIME (SEC) =  0.10000    
       ELAPSED WALLCLOCK TIME (SEC) =          0

               CONVERGENCE CHECKS FOR EQUILIBRIUM ITERATION     2


 AVERAGE FORCE                      3.631E+07   TIME AVG. FORCE       4.218E+07
 LARGEST RESIDUAL FORCE             -80.2       AT NODE      20051   DOF  3
   INSTANCE: SUSPENSIONBRIDGE                                                                
 LARGEST INCREMENT OF DISP.        -0.417       AT NODE      10194   DOF  3
   INSTANCE: SUSPENSIONBRIDGE                                                                
 LARGEST CORRECTION TO DISP.        2.124E-02   AT NODE      10111   DOF  3
   INSTANCE: SUSPENSIONBRIDGE                                                                
 ESTIMATE OF DISP.    CORRECTION    1.020E-04
 FORCE     EQUILIB. ACCEPTED BASED ON SMALL RESIDUAL AND ESTIMATED CORRECTION

 AVERAGE MOMENT                     7.695E+07   TIME AVG. MOMENT      7.650E+07
 LARGEST RESIDUAL MOMENT            -135.       AT NODE      10156   DOF  5
   INSTANCE: SUSPENSIONBRIDGE                                                                
 LARGEST INCREMENT OF ROTATION     -2.303E-03   AT NODE      10219   DOF  5
   INSTANCE: SUSPENSIONBRIDGE                                                                
 LARGEST CORRECTION TO ROTATION     5.531E-05   AT NODE      20062   DOF  5
   INSTANCE: SUSPENSIONBRIDGE                                                                
 ESTIMATE OF ROTATION CORRECTION    2.218E-06
 MOMENT    EQUILIB. ACCEPTED BASED ON SMALL RESIDUAL AND ESTIMATED CORRECTION
          TIME INCREMENT MAY NOW INCREASE TO    2.563E-05

 ITERATION SUMMARY FOR THE INCREMENT:   2 TOTAL ITERATIONS, OF WHICH
   0 ARE SEVERE DISCONTINUITY ITERATIONS AND  2 ARE EQUILIBRIUM ITERATIONS.

 TIME INCREMENT COMPLETED  1.709E-05,  FRACTION OF STEP COMPLETED  5.026E-05
 STEP TIME COMPLETED       5.026E-05,  TOTAL TIME COMPLETED         1.00    


  INCREMENT    10 STARTS. ATTEMPT NUMBER  1, TIME INCREMENT  2.563E-05

  NUMBER OF EQUATIONS =      5588     NUMBER OF FLOATING PT. OPERATIONS =  1.47E+06

  USING THE DIRECT SOLVER WITH   4 PROCESSORS

     CHECK POINT   START OF SOLVER    

     CHECK POINT  END OF SOLVER       

       ELAPSED USER TIME (SEC)      =  0.10000    
       ELAPSED SYSTEM TIME (SEC)    =   0.0000    
       ELAPSED TOTAL CPU TIME (SEC) =  0.10000    
       ELAPSED WALLCLOCK TIME (SEC) =          0

               CONVERGENCE CHECKS FOR EQUILIBRIUM ITERATION     1


 AVERAGE FORCE                      3.235E+07   TIME AVG. FORCE       4.120E+07
 LARGEST RESIDUAL FORCE            -1.998E+04   AT NODE      10051   DOF  3
   INSTANCE: SUSPENSIONBRIDGE                                                                
 LARGEST INCREMENT OF DISP.        -0.452       AT NODE      20194   DOF  3
   INSTANCE: SUSPENSIONBRIDGE                                                                
[...]
   0 ARE SEVERE DISCONTINUITY ITERATIONS AND  1 ARE EQUILIBRIUM ITERATIONS.

 TIME INCREMENT COMPLETED  0.100    ,  FRACTION OF STEP COMPLETED  0.500    
 STEP TIME COMPLETED       0.500    ,  TOTAL TIME COMPLETED         3.50    


  INCREMENT     6 STARTS. ATTEMPT NUMBER  1, TIME INCREMENT  0.150    

  NUMBER OF EQUATIONS =     18610     NUMBER OF FLOATING PT. OPERATIONS =  4.53E+07

  USING THE DIRECT SOLVER WITH   4 PROCESSORS

     CHECK POINT   START OF SOLVER    

     CHECK POINT  END OF SOLVER       

       ELAPSED USER TIME (SEC)      =  0.20000    
       ELAPSED SYSTEM TIME (SEC)    =  0.10000    
       ELAPSED TOTAL CPU TIME (SEC) =  0.30000    
       ELAPSED WALLCLOCK TIME (SEC) =          0

               CONVERGENCE CHECKS FOR EQUILIBRIUM ITERATION     1


 AVERAGE FORCE                      3.917E+07   TIME AVG. FORCE       3.906E+07
 LARGEST RESIDUAL FORCE             0.230       AT NODE     210005   DOF  1
   INSTANCE: SUSPENSIONBRIDGE                                                                
 LARGEST INCREMENT OF DISP.         1.875E-12   AT NODE      12525   DOF  3
   INSTANCE: SUSPENSIONBRIDGE                                                                
 LARGEST CORRECTION TO DISP.        4.861E-12   AT NODE      12495   DOF  3
   INSTANCE: SUSPENSIONBRIDGE                                                                
          THE FORCE     EQUILIBRIUM RESPONSE WAS LINEAR IN THIS INCREMENT

 AVERAGE MOMENT                     2.631E+07   TIME AVG. MOMENT      2.612E+07
 LARGEST RESIDUAL MOMENT            0.957       AT NODE     210005   DOF  6
   INSTANCE: SUSPENSIONBRIDGE                                                                
 LARGEST INCREMENT OF ROTATION     -5.849E-11   AT NODE      10120   DOF  4
   INSTANCE: SUSPENSIONBRIDGE                                                                
 LARGEST CORRECTION TO ROTATION    -3.480E-11   AT NODE      20120   DOF  4
   INSTANCE: SUSPENSIONBRIDGE                                                                
          THE MOMENT    EQUILIBRIUM EQUATIONS HAVE CONVERGED
          TIME INCREMENT MAY NOW INCREASE TO    0.225    

 ITERATION SUMMARY FOR THE INCREMENT:   1 TOTAL ITERATIONS, OF WHICH
   0 ARE SEVERE DISCONTINUITY ITERATIONS AND  1 ARE EQUILIBRIUM ITERATIONS.

 TIME INCREMENT COMPLETED  0.150    ,  FRACTION OF STEP COMPLETED  0.650    
 STEP TIME COMPLETED       0.650    ,  TOTAL TIME COMPLETED         3.65    


  INCREMENT     7 STARTS. ATTEMPT NUMBER  1, TIME INCREMENT  0.225    

  NUMBER OF EQUATIONS =     18610     NUMBER OF FLOATING PT. OPERATIONS =  4.53E+07

  USING THE DIRECT SOLVER WITH   4 PROCESSORS

     CHECK POINT   START OF SOLVER    

     CHECK POINT  END OF SOLVER       

       ELAPSED USER TIME (SEC)      =  0.20000    
       ELAPSED SYSTEM TIME (SEC)    =  0.10000    
       ELAPSED TOTAL CPU TIME (SEC) =  0.30000    
       ELAPSED WALLCLOCK TIME (SEC) =          1

               CONVERGENCE CHECKS FOR EQUILIBRIUM ITERATION     1


 AVERAGE FORCE                      3.917E+07   TIME AVG. FORCE       3.908E+07
 LARGEST RESIDUAL FORCE            -0.186       AT NODE     400003   DOF  1
   INSTANCE: SUSPENSIONBRIDGE                                                                
 LARGEST INCREMENT OF DISP.         4.148E-12   AT NODE      11291   DOF  3
   INSTANCE: SUSPENSIONBRIDGE                                                                
 LARGEST CORRECTION TO DISP.       -5.694E-12   AT NODE      12519   DOF  3
   INSTANCE: SUSPENSIONBRIDGE                                                                
          THE FORCE     EQUILIBRIUM RESPONSE WAS LINEAR IN THIS INCREMENT

 AVERAGE MOMENT                     2.631E+07   TIME AVG. MOMENT      2.614E+07
 LARGEST RESIDUAL MOMENT            0.748       AT NODE     100005   DOF  6
   INSTANCE: SUSPENSIONBRIDGE                                                                
 LARGEST INCREMENT OF ROTATION      4.106E-12   AT NODE      10120   DOF  4
   INSTANCE: SUSPENSIONBRIDGE                                                                
 LARGEST CORRECTION TO ROTATION     9.184E-11   AT NODE      10120   DOF  4
   INSTANCE: SUSPENSIONBRIDGE                                                                
          THE MOMENT    EQUILIBRIUM EQUATIONS HAVE CONVERGED

 ITERATION SUMMARY FOR THE INCREMENT:   1 TOTAL ITERATIONS, OF WHICH
   0 ARE SEVERE DISCONTINUITY ITERATIONS AND  1 ARE EQUILIBRIUM ITERATIONS.

 TIME INCREMENT COMPLETED  0.225    ,  FRACTION OF STEP COMPLETED  0.875    
 STEP TIME COMPLETED       0.875    ,  TOTAL TIME COMPLETED         3.88    


  INCREMENT     8 STARTS. ATTEMPT NUMBER  1, TIME INCREMENT  0.125    

  NUMBER OF EQUATIONS =     18610     NUMBER OF FLOATING PT. OPERATIONS =  4.53E+07

  USING THE DIRECT SOLVER WITH   4 PROCESSORS

     CHECK POINT   START OF SOLVER    

     CHECK POINT  END OF SOLVER       

       ELAPSED USER TIME (SEC)      =  0.40000    
       ELAPSED SYSTEM TIME (SEC)    =  0.20000    
       ELAPSED TOTAL CPU TIME (SEC) =  0.60000    
       ELAPSED WALLCLOCK TIME (SEC) =          0

               CONVERGENCE CHECKS FOR EQUILIBRIUM ITERATION     1


 AVERAGE FORCE                      3.917E+07   TIME AVG. FORCE       3.909E+07
 LARGEST RESIDUAL FORCE            -0.257       AT NODE     201002   DOF  1
   INSTANCE: SUSPENSIONBRIDGE                                                                
 LARGEST INCREMENT OF DISP.        -4.357E-12   AT NODE      11291   DOF  3
   INSTANCE: SUSPENSIONBRIDGE                                                                
 LARGEST CORRECTION TO DISP.       -6.662E-12   AT NODE      11291   DOF  3
   INSTANCE: SUSPENSIONBRIDGE                                                                
          THE FORCE     EQUILIBRIUM RESPONSE WAS LINEAR IN THIS INCREMENT

 AVERAGE MOMENT                     2.631E+07   TIME AVG. MOMENT      2.616E+07
 LARGEST RESIDUAL MOMENT            -1.05       AT NODE     200005   DOF  6
   INSTANCE: SUSPENSIONBRIDGE                                                                
 LARGEST INCREMENT OF ROTATION      1.039E-11   AT NODE      20120   DOF  4
   INSTANCE: SUSPENSIONBRIDGE                                                                
 LARGEST CORRECTION TO ROTATION     1.266E-11   AT NODE      20120   DOF  4
   INSTANCE: SUSPENSIONBRIDGE                                                                
          THE MOMENT    EQUILIBRIUM EQUATIONS HAVE CONVERGED

 ITERATION SUMMARY FOR THE INCREMENT:   1 TOTAL ITERATIONS, OF WHICH
   0 ARE SEVERE DISCONTINUITY ITERATIONS AND  1 ARE EQUILIBRIUM ITERATIONS.

 TIME INCREMENT COMPLETED  0.125    ,  FRACTION OF STEP COMPLETED   1.00    
 STEP TIME COMPLETED        1.00    ,  TOTAL TIME COMPLETED         4.00    
1

   Abaqus 3DEXPERIENCE R2017x                                  Date 30-Mar-2022   Time 11:28:21
   For use by NTNU NORGES TEKNISK NATURVITENSKAPELIGE UNIVERSITET under license from Dassault Systemes or its subsidiary.

                                                                                 
                                                                                 
 STEP    5     INCREMENT     1     STEP TIME    0.00    


                        S T E P       5     C A L C U L A T I O N   O F   E I G E N V A L U E S

                                            F O R   N A T U R A L   F R E Q U E N C I E S



                                                                                          

     THE LANCZOS EIGENSOLVER IS USED FOR THIS ANALYSIS
     Abaqus WILL COMPUTE UNCOUPLED
      STRUCTURAL AND ACOUSTIC MODES
     NUMBER OF EIGENVALUES                    100
     HIGHEST FREQUENCY OF INTEREST                  1.00000E+18
     MAXIMUM NUMBER OF STEPS WITHIN RUN               35
     BLOCK SIZE FOR LANCZOS PROCEDURE                  7
     THE EIGENVECTORS ARE SCALED SO THAT 
      THE LARGEST DISPLACEMENT ENTRY IN EACH VECTOR
      IS UNITY
                              INITIAL STRESS AND DISPLACEMENT EFFECTS ARE
                              INCLUDED IN THE STIFFNESS MATRIX

     THIS IS A LINEAR PERTURBATION STEP.
     ALL LOADS ARE DEFINED AS CHANGE IN LOAD TO THE REFERENCE STATE

          LARGE DISPLACEMENT THEORY WILL BE USED

     EXTRAPOLATION WILL NOT BE USED

     CHARACTERISTIC ELEMENT LENGTH      15.8    

     DETAILS REGARDING ACTUAL SOLUTION WAVEFRONT REQUESTED

     DETAILED OUTPUT OF DIAGNOSTICS TO DATABASE REQUESTED

     PRINT OF INCREMENT NUMBER, TIME, ETC., TO THE MESSAGE FILE EVERY     1  INCREMENTS

 ***NOTE: SHARED MEMORY EXECUTION OF THE ELEMENT CALCULATIONS HAS BEEN TURNED 
          OFF DUE TO THE FOLLOWING FEATURE: SIM ARCHITECTURE IS NOT ACTIVE

     ELEMENT OPERATIONS WILL NOT BE CARRIED OUT IN PARALLEL

     COLLECTING STEP CONSTRAINT INFORMATION FOR OVERCONSTRAINT CHECKS

     CHECK POINT   START OF SOLVER    
  
 COMPUTER PRECISION USED BY ABAQUS      2.22045e-016
 CONVERGENCE CRITERION FOR LANCZOS RUN  1.81899e-012
  
 NUMBER OF EQUATIONS                                                           18610
 NUMBER OF UNRESTRAINED DEGREES OF FREEDOM                                     18522
 HEURISTIC SCALE FOR THE FIRST NONZERO EIGENVALUES (PROBLEM SCALE)  4.45763e-005
 INITIAL SHIFT VALUE                                                0.00000e+000
  
 NUMBER OF CPUS USED BY DIRECT SOLVER     4
  
 NUMBER OF NEGATIVE EIGENVALUES     0
 NUMBER OF POSITIVE EIGENVALUES     18610
 NUMBER OF NEGATIVE EIGENVALUES NOT ASSOCIATED WITH LAGRANGE MULTIPLIERS     0
 NUMBER OF LAGRANGE MULTIPLIERS     0
  
 COMPUTATIONAL INTERVAL FOR THE INITIAL LANCZOS RUN
 
 EIGENVALUES NEEDED TO THE RIGHT OF SHIFT VALUE  100
 EIGENVALUES NEEDED TO THE LEFT OF SHIFT VALUE     0
 RIGHT BOUNDARY OF THE COMPUTATIONAL INTERVAL  3.95574e+037
 LEFT BOUNDARY OF THE COMPUTATIONAL INTERVAL  -3.95574e+037
  
 LANCZOS RUN TERMINATED. NUMBER OF STEPS:   20
 TERMINATION BASED ON THE COST-PER-EIGENVALUE CRITERION
  
 NUMBER OF ACCEPTED EIGENVALUES   45
  
 ACCEPTED EIGENVALUES
  3.98680e-002 1.67662e-001 2.20486e-001 2.77505e-001 4.41101e-001 4.55907e-001
  5.13344e-001 5.34931e-001 6.17751e-001 7.42375e-001 7.62476e-001 7.65798e-001
  8.14422e-001 9.28116e-001 9.83198e-001 1.08765e+000 1.18309e+000 1.24600e+000
  1.26102e+000 1.34829e+000 1.37947e+000 1.38624e+000 1.54604e+000 1.62476e+000
  1.62916e+000 1.70129e+000 1.74377e+000 1.78130e+000 1.79316e+000 1.86070e+000
  1.86864e+000 2.04766e+000 2.33297e+000 2.36608e+000 2.37168e+000 2.39799e+000
  2.55270e+000 2.67624e+000 2.69596e+000 2.97836e+000 2.98632e+000 3.62340e+000
  4.03663e+000 4.06085e+000 4.31234e+000
  
 FACTORIZATION WITH NEW SHIFT VALUE IS REQUIRED
  
 TRUST INTERVALS AFTER LANCZOS RUN AND COMPRESSION
  
 NUMBER OF TRUST INTERVALS    1
  
 -------------------------------------------------------------------------------------
 | KEY | INSIDE |      INERTIAS     |  SENTINELS  |   OUTSIDE   |  NEED TO FIND      |
 |      ENDS OF INTERVAL     |     ENDS OF SENTINEL      |   COMPUTATIONAL INTERVAL  |
 -------------------------------------------------------------------------------------
 |  +  |      0 |        0        0 |     0     0 |     0     0 |      0   100       |
 |-3.95574e+037 0.00000e+000 |-3.95574e+037 0.00000e+000 |-3.95574e+037 3.95574e+037 |
 -------------------------------------------------------------------------------------
  
 DATA FOR CHOOSING SHIFT
  
 NUMBER OF EIGENVALUES NEEDED IN THE PRIMARY TRUST INTERVAL  100
  
 NUMBER OF MODES FORMING SENTINEL TO THE RIGHT   45
 SHIFT RIGHT        1.55977e+001
  
 NUMBER OF MODES FORMING SENTINEL TO THE LEFT     0
 SHIFT LEFT         0.00000e+000
  
 SHIFTING TO THE RIGHT DIRECTION
 NEW SHIFT          1.55977e+001
  
 NUMBER OF NEGATIVE EIGENVALUES    99
 NUMBER OF POSITIVE EIGENVALUES     18511
 NUMBER OF NEGATIVE EIGENVALUES NOT ASSOCIATED WITH LAGRANGE MULTIPLIERS    99
 NUMBER OF LAGRANGE MULTIPLIERS     0
  
 NEW LANCZOS RUN IS REQUIRED
  
 TYPE OF RUN: EXPAND THE TRUST INTERVAL TO THE RIGHT
 EIGENVALUES NEEDED TO THE RIGHT     1
 EIGENVALUES NEEDED TO THE LEFT     54
 RIGHT BOUNDARY OF THE INTERVAL  3.95574e+037
 LEFT BOUNDARY OF THE INTERVAL   4.31234e+000
  
 TRUST INTERVALS AFTER FACTORIZATION AND COMPRESSION
  
 -------------------------------------------------------------------------------------
 | KEY | INSIDE |      INERTIAS     |  SENTINELS  |   OUTSIDE   |  NEED TO FIND      |
 |      ENDS OF INTERVAL     |     ENDS OF SENTINEL      |   COMPUTATIONAL INTERVAL  |
 -------------------------------------------------------------------------------------
 |  +  |      0 |        0        0 |     0    45 |     0    45 |      0   100       |
 |-3.95574e+037 0.00000e+000 |-3.95574e+037 4.31234e+000 |-3.95574e+037 3.95574e+037 |
 -------------------------------------------------------------------------------------
 |  -  |      0 |       99       99 |     0     0 |     0     0 |     54     1       |
 | 1.55977e+001 1.55977e+001 | 1.55977e+001 1.55977e+001 | 4.31234e+000 3.95574e+037 |
 -------------------------------------------------------------------------------------
  
 LANCZOS RUN TERMINATED. NUMBER OF STEPS:   24
 ALL THE EIGENVALUES REQUESTED ON THIS LANCZOS RUN ARE FOUND
  
 NUMBER OF ACCEPTED EIGENVALUES  122
  
 ACCEPTED EIGENVALUES
  3.98680e-002 1.67662e-001 2.20486e-001 2.77505e-001 4.41101e-001 4.55907e-001
  5.13344e-001 5.34931e-001 6.17751e-001 7.42375e-001 7.62476e-001 7.65798e-001
  8.14422e-001 9.28116e-001 9.83198e-001 1.08765e+000 1.18309e+000 1.24600e+000
  1.26102e+000 1.34829e+000 1.37947e+000 1.38624e+000 1.54604e+000 1.62476e+000
  1.62916e+000 1.70129e+000 1.74377e+000 1.78130e+000 1.79316e+000 1.86070e+000
  1.86864e+000 2.04766e+000 2.33297e+000 2.36608e+000 2.37168e+000 2.39799e+000
  2.55270e+000 2.67624e+000 2.69596e+000 2.97836e+000 2.98632e+000 3.62340e+000
  4.03663e+000 4.06085e+000 4.31234e+000 4.78511e+000 4.88762e+000 5.04801e+000
  5.21380e+000 5.22422e+000 5.32455e+000 5.83666e+000 6.11676e+000 6.15688e+000
  6.18139e+000 6.18371e+000 6.24249e+000 6.61457e+000 6.67683e+000 6.70146e+000
  6.78737e+000 6.80157e+000 6.80452e+000 6.83630e+000 7.57122e+000 7.93855e+000
  7.99957e+000 8.01568e+000 8.22887e+000 8.26411e+000 8.50666e+000 8.62977e+000
  8.98566e+000 9.56520e+000 9.98946e+000 1.00293e+001 1.06827e+001 1.17574e+001
  1.18632e+001 1.18856e+001 1.19223e+001 1.21546e+001 1.24202e+001 1.27591e+001
  1.30968e+001 1.31089e+001 1.31089e+001 1.31921e+001 1.32663e+001 1.38164e+001
  1.39133e+001 1.39295e+001 1.39528e+001 1.39588e+001 1.46005e+001 1.48410e+001
  1.53100e+001 1.53599e+001 1.53607e+001 1.58568e+001 1.61189e+001 1.61273e+001
  1.62074e+001 1.71807e+001 1.74633e+001 1.77289e+001 1.77786e+001 1.78344e+001
  1.78921e+001 1.85098e+001 1.92350e+001 1.95730e+001 2.10700e+001 2.13655e+001
  2.14714e+001 2.15055e+001 2.33630e+001 2.34300e+001 2.34767e+001 2.36793e+001
  2.37216e+001 2.48002e+001
  
 FACTORIZATION WITH NEW SHIFT VALUE IS REQUIRED
  
 TRUST INTERVALS AFTER LANCZOS RUN AND COMPRESSION
  
 NUMBER OF TRUST INTERVALS    1
  
 -------------------------------------------------------------------------------------
 | KEY | INSIDE |      INERTIAS     |  SENTINELS  |   OUTSIDE   |  NEED TO FIND      |
 |      ENDS OF INTERVAL     |     ENDS OF SENTINEL      |   COMPUTATIONAL INTERVAL  |
 -------------------------------------------------------------------------------------
 |  +  |     99 |        0       99 |     0     0 |     0     0 |      0     1       |
 |-3.95574e+037 1.55977e+001 |-3.95574e+037 1.55977e+001 |-3.95574e+037 3.95574e+037 |
 -------------------------------------------------------------------------------------
  
 DATA FOR CHOOSING SHIFT
  
 NUMBER OF EIGENVALUES NEEDED IN THE PRIMARY TRUST INTERVAL    1
  
 NUMBER OF MODES FORMING SENTINEL TO THE RIGHT   22
 SHIFT RIGHT        1.59879e+001
  
 NUMBER OF MODES FORMING SENTINEL TO THE LEFT    54
 SHIFT LEFT        -5.91938e+000
  
 SHIFTING TO THE RIGHT DIRECTION
 NEW SHIFT          1.59879e+001
  
 NUMBER OF NEGATIVE EIGENVALUES   100
 NUMBER OF POSITIVE EIGENVALUES     18510
 NUMBER OF NEGATIVE EIGENVALUES NOT ASSOCIATED WITH LAGRANGE MULTIPLIERS   100
 NUMBER OF LAGRANGE MULTIPLIERS     0
  
 THE REQUIRED NUMBER OF EIGENVALUES IS FOUND
  
 FINAL TRUST INTERVAL
  
 -------------------------------------------------------------------------------------
 | KEY | INSIDE |      INERTIAS     |  SENTINELS  |   OUTSIDE   |  NEED TO FIND      |
 |      ENDS OF INTERVAL     |     ENDS OF SENTINEL      |   COMPUTATIONAL INTERVAL  |
 -------------------------------------------------------------------------------------
 |  +  |    100 |        0      100 |     0     0 |     0     0 |      0     0       |
 |-3.95574e+037 1.59879e+001 |-3.95574e+037 1.59879e+001 |-3.95574e+037 1.59879e+001 |
 -------------------------------------------------------------------------------------
  
 FIRST EIGENVALUE REQUESTED BY THE USER     1
  
 EIGENVALUES REQUESTED BY THE USER
  3.98680e-002 1.67662e-001 2.20486e-001 2.77505e-001 4.41101e-001 4.55907e-001
  5.13344e-001 5.34931e-001 6.17751e-001 7.42375e-001 7.62476e-001 7.65798e-001
  8.14422e-001 9.28116e-001 9.83198e-001 1.08765e+000 1.18309e+000 1.24600e+000
  1.26102e+000 1.34829e+000 1.37947e+000 1.38624e+000 1.54604e+000 1.62476e+000
  1.62916e+000 1.70129e+000 1.74377e+000 1.78130e+000 1.79316e+000 1.86070e+000
  1.86864e+000 2.04766e+000 2.33297e+000 2.36608e+000 2.37168e+000 2.39799e+000
  2.55270e+000 2.67624e+000 2.69596e+000 2.97836e+000 2.98632e+000 3.62340e+000
  4.03663e+000 4.06085e+000 4.31234e+000 4.78511e+000 4.88762e+000 5.04801e+000
  5.21380e+000 5.22422e+000 5.32455e+000 5.83666e+000 6.11676e+000 6.15688e+000
  6.18139e+000 6.18371e+000 6.24249e+000 6.61457e+000 6.67683e+000 6.70146e+000
  6.78737e+000 6.80157e+000 6.80452e+000 6.83630e+000 7.57122e+000 7.93855e+000
  7.99957e+000 8.01568e+000 8.22887e+000 8.26411e+000 8.50666e+000 8.62977e+000
  8.98566e+000 9.56520e+000 9.98946e+000 1.00293e+001 1.06827e+001 1.17574e+001
  1.18632e+001 1.18856e+001 1.19223e+001 1.21546e+001 1.24202e+001 1.27591e+001
  1.30968e+001 1.31089e+001 1.31089e+001 1.31921e+001 1.32663e+001 1.38164e+001
  1.39133e+001 1.39295e+001 1.39528e+001 1.39588e+001 1.46005e+001 1.48410e+001
  1.53100e+001 1.53599e+001 1.53607e+001 1.58568e+001
  
 EIGENVALUE EXTRACTION USING THE LANCZOS EIGENSOLVER IS COMPLETE
 NUMBER OF LANCZOS RUNS       :   2
 NUMBER OF LANCZOS STEPS      :  44
 NUMBER OF FACTORIZATIONS     :   3
 NUMBER OF BACK SUBSTITUTIONS :  45

     CHECK POINT  END OF SOLVER       

       ELAPSED USER TIME (SEC)      =   14.100    
       ELAPSED SYSTEM TIME (SEC)    =   1.9000    
       ELAPSED TOTAL CPU TIME (SEC) =   16.000    
       ELAPSED WALLCLOCK TIME (SEC) =          8


          THE ANALYSIS HAS BEEN COMPLETED



     ANALYSIS SUMMARY:
     TOTAL OF         75  INCREMENTS
                       0  CUTBACKS IN AUTOMATIC INCREMENTATION
                     163  ITERATIONS INCLUDING CONTACT ITERATIONS IF PRESENT
                     211  PASSES THROUGH THE EQUATION SOLVER OF WHICH 
                     166  INVOLVE MATRIX DECOMPOSITION, INCLUDING
                       0  DECOMPOSITION(S) OF THE MASS MATRIX
                       1  REORDERING OF EQUATIONS TO MINIMIZE WAVEFRONT
                       0  ADDITIONAL RESIDUAL EVALUATIONS FOR LINE SEARCHES
                       0  ADDITIONAL OPERATOR EVALUATIONS FOR LINE SEARCHES
                     203  WARNING MESSAGES DURING USER INPUT PROCESSING
                       1  WARNING MESSAGES DURING ANALYSIS
                       0  ANALYSIS WARNINGS ARE NUMERICAL PROBLEM MESSAGES
                       0  ANALYSIS WARNINGS ARE NEGATIVE EIGENVALUE MESSAGES
                       0  ERROR MESSAGES



     JOB TIME SUMMARY
       USER TIME (SEC)      =   79.500    
       SYSTEM TIME (SEC)    =   14.700    
       TOTAL CPU TIME (SEC) =   94.200    
       WALLCLOCK TIME (SEC) =         50
