 Abaqus/Standard 3DEXPERIENCE R2017x                  DATE 17-Mar-2022 TIME 11:56:27
 SUMMARY OF JOB INFORMATION:
 STEP  INC ATT SEVERE EQUIL TOTAL  TOTAL      STEP       INC OF       DOF    IF
               DISCON ITERS ITERS  TIME/    TIME/LPF    TIME/LPF    MONITOR RIKS
               ITERS               FREQ
   1     1   1     0     2     2  0.100      0.100      0.1000    
   1     2   1     0     2     2  0.200      0.200      0.1000    
   1     3   1     0     2     2  0.350      0.350      0.1500    
   1     4   1     0     2     2  0.575      0.575      0.2250    
   1     5   1     0     2     2  0.913      0.913      0.3375    
   1     6   1     0     2     2  1.00       1.00       0.08750   
   2     1   1     0     4     4  1.00       1.00e-006  1.000e-006
   2     2   1     0     2     2  1.00       2.00e-006  1.000e-006
   2     3   1     0     2     2  1.00       3.50e-006  1.500e-006
   2     4   1     0     2     2  1.00       5.75e-006  2.250e-006
   2     5   1     0     2     2  1.00       9.12e-006  3.375e-006
   2     6   1     0     2     2  1.00       1.42e-005  5.062e-006
   2     7   1     0     2     2  1.00       2.18e-005  7.594e-006
   2     8   1     0     2     2  1.00       3.32e-005  1.139e-005
   2     9   1     0     2     2  1.00       5.03e-005  1.709e-005
   2    10   1     0     2     2  1.00       7.59e-005  2.563e-005
   2    11   1     0     2     2  1.00       0.000114   3.844e-005
   2    12   1     0     2     2  1.00       0.000172   5.767e-005
   2    13   1     0     2     2  1.00       0.000258   8.650e-005
   2    14   1     0     2     2  1.00       0.000388   0.0001297 
   2    15   1     0     2     2  1.00       0.000583   0.0001946 
   2    16   1     0     2     2  1.00       0.000875   0.0002919 
   2    17   1     0     2     2  1.00       0.00131    0.0004379 
   2    18   1     0     2     2  1.00       0.00197    0.0006568 
   2    19   1     0     2     2  1.00       0.00295    0.0009853 
   2    20   1     0     2     2  1.00       0.00443    0.001478  
   2    21   1     0     2     2  1.01       0.00665    0.002217  
   2    22   1     0     2     2  1.01       0.00997    0.003325  
   2    23   1     0     2     2  1.01       0.0150     0.004988  
   2    24   1     0     2     2  1.02       0.0224     0.007482  
   2    25   1     0     2     2  1.03       0.0337     0.01122   
   2    26   1     0     3     3  1.05       0.0505     0.01683   
   2    27   1     0     3     3  1.08       0.0758     0.02525   
   2    28   1     0     3     3  1.11       0.114      0.03788   
   2    29   1     0     3     3  1.17       0.170      0.05682   
   2    30   1     0     2     2  1.26       0.256      0.08522   
   2    31   1     0     2     2  1.38       0.384      0.1278    
   2    32   1     0     2     2  1.58       0.575      0.1918    
   2    33   1     0     2     2  1.86       0.863      0.2876    
   2    34   1     0     2     2  2.00       1.00       0.1371    
   3     1   1     0     5     5  2.00       0.000100   0.0001000 
   3     2   1     0     1     1  2.00       0.000200   0.0001000 
   3     3   1     0     4     4  2.00       0.000300   0.0001000 
   3     4   1     0     5     5  2.00       0.000450   0.0001500 
   3     5   1     0     4     4  2.00       0.000600   0.0001500 
   3     6   1     0     5     5  2.00       0.000750   0.0001500 
   3     7   1     0     2     2  2.00       0.000900   0.0001500 
   3     8   1     0     1     1  2.00       0.00105    0.0001500 
   3     9   1     0     3     3  2.00       0.00127    0.0002250 
   3    10   1     0     3     3  2.00       0.00161    0.0003375 
   3    11   1     0     3     3  2.00       0.00212    0.0005062 
   3    12   1     0     4     4  2.00       0.00288    0.0007594 
   3    13   1     0     4     4  2.00       0.00402    0.001139  
   3    14   1     0     4     4  2.01       0.00573    0.001709  
   3    15   1     0     5     5  2.01       0.00829    0.002563  
   3    16   1     0     5     5  2.01       0.0109     0.002563  
   3    17   1     0     4     4  2.01       0.0134     0.002563  
   3    18   1     0     4     4  2.02       0.0160     0.002563  
   3    19   1     0     4     4  2.02       0.0198     0.003844  
   3    20   1     0     4     4  2.03       0.0256     0.005767  
   3    21   1     0     4     4  2.03       0.0342     0.008650  
   3    22   1     0     4     4  2.05       0.0472     0.01297   
   3    23   1     0     4     4  2.07       0.0667     0.01946   
   3    24   1     0     1     1  2.10       0.0959     0.02919   
   3    25   1     0     2     2  2.14       0.140      0.04379   
   3    26   1     0     2     2  2.21       0.205      0.06568   
   3    27   1     0     2     2  2.30       0.304      0.09853   
   3    28   1     0     2     2  2.45       0.452      0.1478    
   3    29   1     0     2     2  2.67       0.673      0.2217    
   3    30   1     0     2     2  3.00       1.00       0.3267    
   4     1   1     0     1     1  3.10       0.100      0.1000    
   4     2   1     0     5     5  3.20       0.200      0.1000    
   4     3   1U    0     4     4  3.20       0.200      0.1000    
   4     3   2     0     4     4  3.23       0.225      0.02500   
   4     4   1     0     1     1  3.25       0.250      0.02500   
   4     5   1     0     1     1  3.29       0.287      0.03750   
   4     6   1     0     1     1  3.34       0.344      0.05625   
   4     7   1     0     1     1  3.43       0.428      0.08438   
   4     8   1     0     1     1  3.55       0.555      0.1266    
   4     9   1     0     1     1  3.74       0.745      0.1898    
   4    10   1     0     1     1  4.00       1.00       0.2555    
   5     1   1     0     0     0  4.00       1.00e-036  1.000e-036
                          
 THE ANALYSIS HAS COMPLETED SUCCESSFULLY
