1

   Abaqus 3DEXPERIENCE R2017x                                  Date 23-Aug-2023   Time 08:10:50
   For use by NTNU NORGES TEKNISK NATURVITENSKAPELIGE UNIVERSITET under license from Dassault Systemes or its subsidiary.

                                                                                 
                                                                                 
 STEP    1     INCREMENT     1     STEP TIME    0.00    


                        S T E P       1     C A L C U L A T I O N   O F   E I G E N V A L U E S

                                            F O R   N A T U R A L   F R E Q U E N C I E S



                                                                                          

     THE LANCZOS EIGENSOLVER IS USED FOR THIS ANALYSIS
     Abaqus WILL COMPUTE UNCOUPLED
      STRUCTURAL AND ACOUSTIC MODES
     NUMBER OF EIGENVALUES                     50
     HIGHEST FREQUENCY OF INTEREST                  1.00000E+18
     MAXIMUM NUMBER OF STEPS WITHIN RUN               35
     BLOCK SIZE FOR LANCZOS PROCEDURE                  7
     THE EIGENVECTORS ARE SCALED SO THAT 
      THE LARGEST DISPLACEMENT ENTRY IN EACH VECTOR
      IS UNITY

     THIS IS A LINEAR PERTURBATION STEP.
     ALL LOADS ARE DEFINED AS CHANGE IN LOAD TO THE REFERENCE STATE

     EXTRAPOLATION WILL NOT BE USED

     CHARACTERISTIC ELEMENT LENGTH     0.907    

     DETAILS REGARDING ACTUAL SOLUTION WAVEFRONT REQUESTED

     DETAILED OUTPUT OF DIAGNOSTICS TO DATABASE REQUESTED

     PRINT OF INCREMENT NUMBER, TIME, ETC., TO THE MESSAGE FILE EVERY     1  INCREMENTS

 ***NOTE: SHARED MEMORY EXECUTION OF THE ELEMENT CALCULATIONS HAS BEEN TURNED 
          OFF DUE TO THE FOLLOWING FEATURE: SIM ARCHITECTURE IS NOT ACTIVE

     ELEMENT OPERATIONS WILL NOT BE CARRIED OUT IN PARALLEL

     COLLECTING MODEL CONSTRAINT INFORMATION FOR OVERCONSTRAINT CHECKS

     COLLECTING STEP CONSTRAINT INFORMATION FOR OVERCONSTRAINT CHECKS

     CHECK POINT   START OF SOLVER    
  
 COMPUTER PRECISION USED BY ABAQUS      2.22045e-016
 CONVERGENCE CRITERION FOR LANCZOS RUN  1.81899e-012
  
 NUMBER OF EQUATIONS                                                         534
 NUMBER OF UNRESTRAINED DEGREES OF FREEDOM                                   515
 HEURISTIC SCALE FOR THE FIRST NONZERO EIGENVALUES (PROBLEM SCALE)  4.30159e+002
 INITIAL SHIFT VALUE                                                0.00000e+000
  
 NUMBER OF CPUS USED BY DIRECT SOLVER     4
  
 NUMBER OF NEGATIVE EIGENVALUES     0
 NUMBER OF POSITIVE EIGENVALUES   534
 NUMBER OF NEGATIVE EIGENVALUES NOT ASSOCIATED WITH LAGRANGE MULTIPLIERS     0
 NUMBER OF LAGRANGE MULTIPLIERS     0
  
 COMPUTATIONAL INTERVAL FOR THE INITIAL LANCZOS RUN
 
 EIGENVALUES NEEDED TO THE RIGHT OF SHIFT VALUE   50
 EIGENVALUES NEEDED TO THE LEFT OF SHIFT VALUE     0
 RIGHT BOUNDARY OF THE COMPUTATIONAL INTERVAL  3.95574e+037
 LEFT BOUNDARY OF THE COMPUTATIONAL INTERVAL  -3.95574e+037
  
 LANCZOS RUN TERMINATED. NUMBER OF STEPS:   21
 ALL THE EIGENVALUES REQUESTED ON THIS LANCZOS RUN ARE FOUND
  
 NUMBER OF ACCEPTED EIGENVALUES   61
  
 ACCEPTED EIGENVALUES
  1.11142e+004 3.71024e+004 4.41524e+004 4.95160e+004 6.15867e+004 8.52237e+004
  1.01552e+005 1.10313e+005 1.11773e+005 1.19249e+005 1.19402e+005 1.19966e+005
  1.28254e+005 1.29883e+005 1.31473e+005 1.37704e+005 1.39984e+005 1.44634e+005
  1.45020e+005 1.49786e+005 1.98555e+005 2.61067e+005 3.14529e+005 3.41936e+005
  3.48952e+005 4.57020e+005 6.04122e+005 6.32054e+005 7.09171e+005 7.59688e+005
  7.74262e+005 7.85909e+005 8.47310e+005 8.81653e+005 8.95855e+005 9.73208e+005
  1.00227e+006 1.01471e+006 1.01518e+006 1.04476e+006 1.04604e+006 1.07175e+006
  1.15480e+006 1.28570e+006 1.46669e+006 1.56848e+006 1.58149e+006 1.61157e+006
  1.61728e+006 1.64688e+006 1.64691e+006 1.65724e+006 1.75482e+006 1.89962e+006
  1.90823e+006 2.11015e+006 2.17290e+006 2.18398e+006 2.88433e+006 3.02700e+006
  3.22455e+006
  
 FACTORIZATION WITH NEW SHIFT VALUE IS REQUIRED
  
 TRUST INTERVALS AFTER LANCZOS RUN AND COMPRESSION
  
 NUMBER OF TRUST INTERVALS    1
  
 -------------------------------------------------------------------------------------
 | KEY | INSIDE |      INERTIAS     |  SENTINELS  |   OUTSIDE   |  NEED TO FIND      |
 |      ENDS OF INTERVAL     |     ENDS OF SENTINEL      |   COMPUTATIONAL INTERVAL  |
 -------------------------------------------------------------------------------------
 |  +  |      0 |        0        0 |     0     0 |     0     0 |      0    50       |
 |-3.95574e+037 0.00000e+000 |-3.95574e+037 0.00000e+000 |-3.95574e+037 3.95574e+037 |
 -------------------------------------------------------------------------------------
  
 DATA FOR CHOOSING SHIFT
  
 NUMBER OF EIGENVALUES NEEDED IN THE PRIMARY TRUST INTERVAL   50
  
 NUMBER OF MODES FORMING SENTINEL TO THE RIGHT   61
 SHIFT RIGHT        1.64689e+006
  
 NUMBER OF MODES FORMING SENTINEL TO THE LEFT     0
 SHIFT LEFT         0.00000e+000
  
 SHIFTING TO THE RIGHT DIRECTION
 NEW SHIFT          1.64689e+006
  
 NUMBER OF NEGATIVE EIGENVALUES    49
 NUMBER OF POSITIVE EIGENVALUES   485
 NUMBER OF NEGATIVE EIGENVALUES NOT ASSOCIATED WITH LAGRANGE MULTIPLIERS    49
 NUMBER OF LAGRANGE MULTIPLIERS     0
  
 NUMBER OF SINGULARITIES            3
  
 NUMBER OF ZERO PIVOTS              0
 UPDATED SHIFT VALUE    1.81158e+006
  
 NUMBER OF NEGATIVE EIGENVALUES    52
 NUMBER OF POSITIVE EIGENVALUES   482
 NUMBER OF NEGATIVE EIGENVALUES NOT ASSOCIATED WITH LAGRANGE MULTIPLIERS    52
 NUMBER OF LAGRANGE MULTIPLIERS     0
  
 NUMBER OF SINGULARITIES            2
  
 NUMBER OF ZERO PIVOTS              0
 UPDATED SHIFT VALUE    1.99274e+006
  
 NUMBER OF NEGATIVE EIGENVALUES    54
 NUMBER OF POSITIVE EIGENVALUES   480
 NUMBER OF NEGATIVE EIGENVALUES NOT ASSOCIATED WITH LAGRANGE MULTIPLIERS    54
 NUMBER OF LAGRANGE MULTIPLIERS     0
  
 NUMBER OF SINGULARITIES            2
  
 NUMBER OF ZERO PIVOTS              0
 THREE FACTORIZATIONS IN A ROW FAILED. MOST LIKELY THAT AN INTERVAL CONTAINING UNDETERMINED EIGENVALUES IS LOCALIZED
 TRYING TO USE NEW SHIFT VALUE BETWEEN THE CURRENT ONE AND THE LAST ACCEPTABLE SHIFT VALUE    0.00000e+000
  
 NUMBER OF NEGATIVE EIGENVALUES     0
 NUMBER OF POSITIVE EIGENVALUES   534
 NUMBER OF NEGATIVE EIGENVALUES NOT ASSOCIATED WITH LAGRANGE MULTIPLIERS     0
 NUMBER OF LAGRANGE MULTIPLIERS     0
  
 NEW LANCZOS RUN IS REQUIRED
  
 TYPE OF RUN: EXPAND THE TRUST INTERVAL TO THE RIGHT
 EIGENVALUES NEEDED TO THE RIGHT    50
 EIGENVALUES NEEDED TO THE LEFT      0
 RIGHT BOUNDARY OF THE INTERVAL  3.95574e+037
 LEFT BOUNDARY OF THE INTERVAL   0.00000e+000
  
 TRUST INTERVALS AFTER FACTORIZATION AND COMPRESSION
  
 -------------------------------------------------------------------------------------
 | KEY | INSIDE |      INERTIAS     |  SENTINELS  |   OUTSIDE   |  NEED TO FIND      |
 |      ENDS OF INTERVAL     |     ENDS OF SENTINEL      |   COMPUTATIONAL INTERVAL  |
 -------------------------------------------------------------------------------------
 |  +  |      0 |        0        0 |     0     0 |     0    61 |      0    50       |
 |-3.95574e+037 0.00000e+000 |-3.95574e+037 0.00000e+000 |-3.95574e+037 3.95574e+037 |
 -------------------------------------------------------------------------------------
  
 LANCZOS RUN TERMINATED. NUMBER OF STEPS:   16
 TERMINATION BASED ON THE COST-PER-EIGENVALUE CRITERION
  
 NUMBER OF ACCEPTED EIGENVALUES   78
  
 ACCEPTED EIGENVALUES
  1.11142e+004 3.71024e+004 4.41524e+004 4.95160e+004 6.15867e+004 8.52237e+004
  1.01552e+005 1.10313e+005 1.11773e+005 1.19249e+005 1.19402e+005 1.19966e+005
  1.28254e+005 1.29883e+005 1.31473e+005 1.37704e+005 1.39984e+005 1.44634e+005
  1.45020e+005 1.49786e+005 1.98555e+005 2.61067e+005 3.14529e+005 3.41936e+005
  3.48952e+005 4.57020e+005 6.04122e+005 6.32054e+005 7.09171e+005 7.59688e+005
  7.74262e+005 7.85909e+005 8.47310e+005 8.81653e+005 8.95855e+005 9.73208e+005
  1.00227e+006 1.01471e+006 1.01518e+006 1.04476e+006 1.04604e+006 1.07175e+006
  1.15480e+006 1.28570e+006 1.46669e+006 1.56848e+006 1.58149e+006 1.61157e+006
  1.61728e+006 1.64688e+006 1.64691e+006 1.65724e+006 1.75482e+006 1.89962e+006
  1.90823e+006 2.11015e+006 2.17290e+006 2.18398e+006 2.88433e+006 3.02700e+006
  3.22455e+006 3.41887e+006 3.48177e+006 3.51190e+006 3.52017e+006 3.62013e+006
  3.69203e+006 3.71279e+006 3.72046e+006 3.74013e+006 3.74849e+006 3.74947e+006
  4.13602e+006 4.18002e+006 4.33476e+006 4.63781e+006 4.64861e+006 5.13323e+006
  
 FACTORIZATION WITH NEW SHIFT VALUE IS REQUIRED
  
 TRUST INTERVALS AFTER LANCZOS RUN AND COMPRESSION
  
 NUMBER OF TRUST INTERVALS    1
  
 -------------------------------------------------------------------------------------
 | KEY | INSIDE |      INERTIAS     |  SENTINELS  |   OUTSIDE   |  NEED TO FIND      |
 |      ENDS OF INTERVAL     |     ENDS OF SENTINEL      |   COMPUTATIONAL INTERVAL  |
 -------------------------------------------------------------------------------------
 |  +  |      0 |        0        0 |     0     0 |     0    61 |      0    50       |
 |-3.95574e+037 0.00000e+000 |-3.95574e+037 0.00000e+000 |-3.95574e+037 3.95574e+037 |
 -------------------------------------------------------------------------------------
  
 DATA FOR CHOOSING SHIFT
  
 NUMBER OF EIGENVALUES NEEDED IN THE PRIMARY TRUST INTERVAL   50
  
 NUMBER OF MODES FORMING SENTINEL TO THE RIGHT   17
 SHIFT RIGHT        1.02151e+007
  
 NUMBER OF MODES FORMING SENTINEL TO THE LEFT     0
 SHIFT LEFT         0.00000e+000
  
 SHIFTING TO THE RIGHT DIRECTION
 NEW SHIFT          1.02151e+007
  
 NUMBER OF NEGATIVE EIGENVALUES   111
 NUMBER OF POSITIVE EIGENVALUES   423
 NUMBER OF NEGATIVE EIGENVALUES NOT ASSOCIATED WITH LAGRANGE MULTIPLIERS   111
 NUMBER OF LAGRANGE MULTIPLIERS     0
  
 NEW LANCZOS RUN IS REQUIRED
  
 TYPE OF RUN: EXPAND THE TRUST INTERVAL TO THE RIGHT
 EIGENVALUES NEEDED TO THE RIGHT     0
 EIGENVALUES NEEDED TO THE LEFT     33
 RIGHT BOUNDARY OF THE INTERVAL  1.02151e+007
 LEFT BOUNDARY OF THE INTERVAL   5.13323e+006
  
 TRUST INTERVALS AFTER FACTORIZATION AND COMPRESSION
  
 -------------------------------------------------------------------------------------
 | KEY | INSIDE |      INERTIAS     |  SENTINELS  |   OUTSIDE   |  NEED TO FIND      |
 |      ENDS OF INTERVAL     |     ENDS OF SENTINEL      |   COMPUTATIONAL INTERVAL  |
 -------------------------------------------------------------------------------------
 |  +  |      0 |        0        0 |     0    17 |     0    17 |      0    50       |
 |-3.95574e+037 0.00000e+000 |-3.95574e+037 5.13323e+006 |-3.95574e+037 3.95574e+037 |
 -------------------------------------------------------------------------------------
 |  -  |      0 |      111      111 |     0     0 |     0     0 |     33     0       |
 | 1.02151e+007 1.02151e+007 | 1.02151e+007 1.02151e+007 | 5.13323e+006 1.02151e+007 |
 -------------------------------------------------------------------------------------
  
 LANCZOS RUN TERMINATED. NUMBER OF STEPS:   15
 ALL THE EIGENVALUES REQUESTED ON THIS LANCZOS RUN ARE FOUND
  
 NUMBER OF ACCEPTED EIGENVALUES  111
  
 ACCEPTED EIGENVALUES
  1.11142e+004 3.71024e+004 4.41524e+004 4.95160e+004 6.15867e+004 8.52237e+004
  1.01552e+005 1.10313e+005 1.11773e+005 1.19249e+005 1.19402e+005 1.19966e+005
  1.28254e+005 1.29883e+005 1.31473e+005 1.37704e+005 1.39984e+005 1.44634e+005
  1.45020e+005 1.49786e+005 1.98555e+005 2.61067e+005 3.14529e+005 3.41936e+005
  3.48952e+005 4.57020e+005 6.04122e+005 6.32054e+005 7.09171e+005 7.59688e+005
  7.74262e+005 7.85909e+005 8.47310e+005 8.81653e+005 8.95855e+005 9.73208e+005
  1.00227e+006 1.01471e+006 1.01518e+006 1.04476e+006 1.04604e+006 1.07175e+006
  1.15480e+006 1.28570e+006 1.46669e+006 1.56848e+006 1.58149e+006 1.61157e+006
  1.61728e+006 1.64688e+006 1.64691e+006 1.65724e+006 1.75482e+006 1.89962e+006
  1.90823e+006 2.11015e+006 2.17290e+006 2.18398e+006 2.88433e+006 3.02700e+006
  3.22455e+006 3.41887e+006 3.48177e+006 3.51190e+006 3.52017e+006 3.62013e+006
  3.69203e+006 3.71279e+006 3.72046e+006 3.74013e+006 3.74849e+006 3.74947e+006
  4.13602e+006 4.18002e+006 4.33476e+006 4.63781e+006 4.64861e+006 5.13323e+006
  5.98137e+006 6.21484e+006 6.34651e+006 6.40378e+006 6.51906e+006 6.55930e+006
  6.56093e+006 6.70689e+006 6.93108e+006 7.17433e+006 7.35702e+006 8.14997e+006
  8.18842e+006 8.38615e+006 8.56446e+006 8.84650e+006 8.89109e+006 8.97862e+006
  8.98534e+006 9.04950e+006 9.13994e+006 9.16677e+006 9.16830e+006 9.23364e+006
  9.34355e+006 9.39330e+006 9.47096e+006 9.47484e+006 9.76193e+006 9.96222e+006
  1.00291e+007 1.01437e+007 1.01962e+007
  
 THE REQUIRED NUMBER OF EIGENVALUES IS FOUND
  
 FINAL TRUST INTERVALS AFTER SUCCESSFUL LANCZOS RUN
  
 NUMBER OF TRUST INTERVALS    1
  
 -------------------------------------------------------------------------------------
 | KEY | INSIDE |      INERTIAS     |  SENTINELS  |   OUTSIDE   |  NEED TO FIND      |
 |      ENDS OF INTERVAL     |     ENDS OF SENTINEL      |   COMPUTATIONAL INTERVAL  |
 -------------------------------------------------------------------------------------
 |  +  |    111 |        0      111 |     0     0 |     0     0 |      0     0       |
 |-3.95574e+037 1.02151e+007 |-3.95574e+037 1.02151e+007 |-3.95574e+037 1.02151e+007 |
 -------------------------------------------------------------------------------------
  
 FIRST EIGENVALUE REQUESTED BY THE USER     1
  
 EIGENVALUES REQUESTED BY THE USER
  1.11142e+004 3.71024e+004 4.41524e+004 4.95160e+004 6.15867e+004 8.52237e+004
  1.01552e+005 1.10313e+005 1.11773e+005 1.19249e+005 1.19402e+005 1.19966e+005
  1.28254e+005 1.29883e+005 1.31473e+005 1.37704e+005 1.39984e+005 1.44634e+005
  1.45020e+005 1.49786e+005 1.98555e+005 2.61067e+005 3.14529e+005 3.41936e+005
  3.48952e+005 4.57020e+005 6.04122e+005 6.32054e+005 7.09171e+005 7.59688e+005
  7.74262e+005 7.85909e+005 8.47310e+005 8.81653e+005 8.95855e+005 9.73208e+005
  1.00227e+006 1.01471e+006 1.01518e+006 1.04476e+006 1.04604e+006 1.07175e+006
  1.15480e+006 1.28570e+006 1.46669e+006 1.56848e+006 1.58149e+006 1.61157e+006
  1.61728e+006 1.64688e+006
  
 EIGENVALUE EXTRACTION USING THE LANCZOS EIGENSOLVER IS COMPLETE
 NUMBER OF LANCZOS RUNS       :   3
 NUMBER OF LANCZOS STEPS      :  52
 NUMBER OF FACTORIZATIONS     :   6
 NUMBER OF BACK SUBSTITUTIONS :  53

     CHECK POINT  END OF SOLVER       

       ELAPSED USER TIME (SEC)      =   2.4000    
       ELAPSED SYSTEM TIME (SEC)    =  0.20000    
       ELAPSED TOTAL CPU TIME (SEC) =   2.6000    
       ELAPSED WALLCLOCK TIME (SEC) =          2


          THE ANALYSIS HAS BEEN COMPLETED



     ANALYSIS SUMMARY:
     TOTAL OF          1  INCREMENTS
                       0  CUTBACKS IN AUTOMATIC INCREMENTATION
                       0  ITERATIONS INCLUDING CONTACT ITERATIONS IF PRESENT
                      59  PASSES THROUGH THE EQUATION SOLVER OF WHICH 
                       6  INVOLVE MATRIX DECOMPOSITION, INCLUDING
                       0  DECOMPOSITION(S) OF THE MASS MATRIX
                       1  REORDERING OF EQUATIONS TO MINIMIZE WAVEFRONT
                       0  ADDITIONAL RESIDUAL EVALUATIONS FOR LINE SEARCHES
                       0  ADDITIONAL OPERATOR EVALUATIONS FOR LINE SEARCHES
                      25  WARNING MESSAGES DURING USER INPUT PROCESSING
                       0  WARNING MESSAGES DURING ANALYSIS
                       0  ANALYSIS WARNINGS ARE NUMERICAL PROBLEM MESSAGES
                       0  ANALYSIS WARNINGS ARE NEGATIVE EIGENVALUE MESSAGES
                       0  ERROR MESSAGES



     JOB TIME SUMMARY
       USER TIME (SEC)      =   2.8000    
       SYSTEM TIME (SEC)    =  0.30000    
       TOTAL CPU TIME (SEC) =   3.1000    
       WALLCLOCK TIME (SEC) =          3
