1

   Abaqus 3DEXPERIENCE R2017x                                  Date 23-Aug-2023   Time 08:14:07
   For use by NTNU NORGES TEKNISK NATURVITENSKAPELIGE UNIVERSITET under license from Dassault Systemes or its subsidiary.

                                                                                 
                                                                                 
 STEP    1     INCREMENT     1     STEP TIME    0.00    


                        S T E P       1     C A L C U L A T I O N   O F   E I G E N V A L U E S

                                            F O R   N A T U R A L   F R E Q U E N C I E S



                                                                                          

     THE LANCZOS EIGENSOLVER IS USED FOR THIS ANALYSIS
     Abaqus WILL COMPUTE UNCOUPLED
      STRUCTURAL AND ACOUSTIC MODES
     NUMBER OF EIGENVALUES                     50
     HIGHEST FREQUENCY OF INTEREST                  1.00000E+18
     MAXIMUM NUMBER OF STEPS WITHIN RUN               35
     BLOCK SIZE FOR LANCZOS PROCEDURE                  7
     THE EIGENVECTORS ARE SCALED SO THAT 
      THE LARGEST DISPLACEMENT ENTRY IN EACH VECTOR
      IS UNITY

     THIS IS A LINEAR PERTURBATION STEP.
     ALL LOADS ARE DEFINED AS CHANGE IN LOAD TO THE REFERENCE STATE

     EXTRAPOLATION WILL NOT BE USED

     CHARACTERISTIC ELEMENT LENGTH     0.898    

     DETAILS REGARDING ACTUAL SOLUTION WAVEFRONT REQUESTED

     DETAILED OUTPUT OF DIAGNOSTICS TO DATABASE REQUESTED

     PRINT OF INCREMENT NUMBER, TIME, ETC., TO THE MESSAGE FILE EVERY     1  INCREMENTS

 ***NOTE: SHARED MEMORY EXECUTION OF THE ELEMENT CALCULATIONS HAS BEEN TURNED 
          OFF DUE TO THE FOLLOWING FEATURE: SIM ARCHITECTURE IS NOT ACTIVE

     ELEMENT OPERATIONS WILL NOT BE CARRIED OUT IN PARALLEL

     COLLECTING MODEL CONSTRAINT INFORMATION FOR OVERCONSTRAINT CHECKS

     COLLECTING STEP CONSTRAINT INFORMATION FOR OVERCONSTRAINT CHECKS

     CHECK POINT   START OF SOLVER    
  
 COMPUTER PRECISION USED BY ABAQUS      2.22045e-016
 CONVERGENCE CRITERION FOR LANCZOS RUN  1.81899e-012
  
 NUMBER OF EQUATIONS                                                         582
 NUMBER OF UNRESTRAINED DEGREES OF FREEDOM                                   563
 HEURISTIC SCALE FOR THE FIRST NONZERO EIGENVALUES (PROBLEM SCALE)  3.91886e+002
 INITIAL SHIFT VALUE                                                0.00000e+000
  
 NUMBER OF CPUS USED BY DIRECT SOLVER     4
  
 NUMBER OF NEGATIVE EIGENVALUES     0
 NUMBER OF POSITIVE EIGENVALUES   582
 NUMBER OF NEGATIVE EIGENVALUES NOT ASSOCIATED WITH LAGRANGE MULTIPLIERS     0
 NUMBER OF LAGRANGE MULTIPLIERS     0
  
 COMPUTATIONAL INTERVAL FOR THE INITIAL LANCZOS RUN
 
 EIGENVALUES NEEDED TO THE RIGHT OF SHIFT VALUE   50
 EIGENVALUES NEEDED TO THE LEFT OF SHIFT VALUE     0
 RIGHT BOUNDARY OF THE COMPUTATIONAL INTERVAL  3.95574e+037
 LEFT BOUNDARY OF THE COMPUTATIONAL INTERVAL  -3.95574e+037
  
 LANCZOS RUN TERMINATED. NUMBER OF STEPS:   18
 ALL THE EIGENVALUES REQUESTED ON THIS LANCZOS RUN ARE FOUND
  
 NUMBER OF ACCEPTED EIGENVALUES   58
  
 ACCEPTED EIGENVALUES
  1.11996e+004 2.70646e+004 4.02584e+004 4.16960e+004 4.27723e+004 4.84467e+004
  5.49712e+004 5.51784e+004 6.03360e+004 6.05994e+004 6.55700e+004 6.77570e+004
  6.93182e+004 7.10748e+004 7.30484e+004 7.37317e+004 7.38311e+004 7.57142e+004
  7.97969e+004 1.27173e+005 1.96866e+005 2.64433e+005 2.68416e+005 3.00662e+005
  3.46226e+005 3.54414e+005 3.63824e+005 4.04572e+005 4.15328e+005 4.20077e+005
  4.23431e+005 4.37246e+005 4.46237e+005 4.47714e+005 4.60255e+005 4.80954e+005
  5.23139e+005 5.53358e+005 5.65291e+005 6.15674e+005 6.68064e+005 6.96262e+005
  7.06475e+005 7.08820e+005 7.29649e+005 7.39214e+005 7.47314e+005 7.47367e+005
  7.84535e+005 9.65437e+005 9.68158e+005 1.07225e+006 1.09901e+006 1.10375e+006
  1.22296e+006 1.38369e+006 1.42007e+006 2.10064e+006
  
 FACTORIZATION WITH NEW SHIFT VALUE IS REQUIRED
  
 TRUST INTERVALS AFTER LANCZOS RUN AND COMPRESSION
  
 NUMBER OF TRUST INTERVALS    1
  
 -------------------------------------------------------------------------------------
 | KEY | INSIDE |      INERTIAS     |  SENTINELS  |   OUTSIDE   |  NEED TO FIND      |
 |      ENDS OF INTERVAL     |     ENDS OF SENTINEL      |   COMPUTATIONAL INTERVAL  |
 -------------------------------------------------------------------------------------
 |  +  |      0 |        0        0 |     0     0 |     0     0 |      0    50       |
 |-3.95574e+037 0.00000e+000 |-3.95574e+037 0.00000e+000 |-3.95574e+037 3.95574e+037 |
 -------------------------------------------------------------------------------------
  
 DATA FOR CHOOSING SHIFT
  
 NUMBER OF EIGENVALUES NEEDED IN THE PRIMARY TRUST INTERVAL   50
  
 NUMBER OF MODES FORMING SENTINEL TO THE RIGHT   58
 SHIFT RIGHT        9.66798e+005
  
 NUMBER OF MODES FORMING SENTINEL TO THE LEFT     0
 SHIFT LEFT         0.00000e+000
  
 SHIFTING TO THE RIGHT DIRECTION
 NEW SHIFT          9.66798e+005
  
 NUMBER OF NEGATIVE EIGENVALUES    50
 NUMBER OF POSITIVE EIGENVALUES   532
 NUMBER OF NEGATIVE EIGENVALUES NOT ASSOCIATED WITH LAGRANGE MULTIPLIERS    50
 NUMBER OF LAGRANGE MULTIPLIERS     0
  
 NUMBER OF SINGULARITIES            4
  
 NUMBER OF ZERO PIVOTS              0
 UPDATED SHIFT VALUE    1.06348e+006
  
 NUMBER OF NEGATIVE EIGENVALUES    50
 NUMBER OF POSITIVE EIGENVALUES   532
 NUMBER OF NEGATIVE EIGENVALUES NOT ASSOCIATED WITH LAGRANGE MULTIPLIERS    50
 NUMBER OF LAGRANGE MULTIPLIERS     0
  
 NUMBER OF SINGULARITIES            3
  
 NUMBER OF ZERO PIVOTS              0
 UPDATED SHIFT VALUE    1.16983e+006
  
 NUMBER OF NEGATIVE EIGENVALUES    53
 NUMBER OF POSITIVE EIGENVALUES   529
 NUMBER OF NEGATIVE EIGENVALUES NOT ASSOCIATED WITH LAGRANGE MULTIPLIERS    53
 NUMBER OF LAGRANGE MULTIPLIERS     0
  
 NUMBER OF SINGULARITIES            3
  
 NUMBER OF ZERO PIVOTS              0
 THREE FACTORIZATIONS IN A ROW FAILED. MOST LIKELY THAT AN INTERVAL CONTAINING UNDETERMINED EIGENVALUES IS LOCALIZED
 TRYING TO USE NEW SHIFT VALUE BETWEEN THE CURRENT ONE AND THE LAST ACCEPTABLE SHIFT VALUE    0.00000e+000
  
 NUMBER OF NEGATIVE EIGENVALUES     0
 NUMBER OF POSITIVE EIGENVALUES   582
 NUMBER OF NEGATIVE EIGENVALUES NOT ASSOCIATED WITH LAGRANGE MULTIPLIERS     0
 NUMBER OF LAGRANGE MULTIPLIERS     0
  
 NEW LANCZOS RUN IS REQUIRED
  
 TYPE OF RUN: EXPAND THE TRUST INTERVAL TO THE RIGHT
 EIGENVALUES NEEDED TO THE RIGHT    50
 EIGENVALUES NEEDED TO THE LEFT      0
 RIGHT BOUNDARY OF THE INTERVAL  3.95574e+037
 LEFT BOUNDARY OF THE INTERVAL   0.00000e+000
  
 TRUST INTERVALS AFTER FACTORIZATION AND COMPRESSION
  
 -------------------------------------------------------------------------------------
 | KEY | INSIDE |      INERTIAS     |  SENTINELS  |   OUTSIDE   |  NEED TO FIND      |
 |      ENDS OF INTERVAL     |     ENDS OF SENTINEL      |   COMPUTATIONAL INTERVAL  |
 -------------------------------------------------------------------------------------
 |  +  |      0 |        0        0 |     0     0 |     0    58 |      0    50       |
 |-3.95574e+037 0.00000e+000 |-3.95574e+037 0.00000e+000 |-3.95574e+037 3.95574e+037 |
 -------------------------------------------------------------------------------------
  
 LANCZOS RUN TERMINATED. NUMBER OF STEPS:   19
 TERMINATION BASED ON THE COST-PER-EIGENVALUE CRITERION
  
 NUMBER OF ACCEPTED EIGENVALUES   87
  
 ACCEPTED EIGENVALUES
  1.11996e+004 2.70646e+004 4.02584e+004 4.16960e+004 4.27723e+004 4.84467e+004
  5.49712e+004 5.51784e+004 6.03360e+004 6.05994e+004 6.55700e+004 6.77570e+004
  6.93182e+004 7.10748e+004 7.30484e+004 7.37317e+004 7.38311e+004 7.57142e+004
  7.97969e+004 1.27173e+005 1.96866e+005 2.64433e+005 2.68416e+005 3.00662e+005
  3.46226e+005 3.54414e+005 3.63824e+005 4.04572e+005 4.15328e+005 4.20077e+005
  4.23431e+005 4.37246e+005 4.46237e+005 4.47714e+005 4.60255e+005 4.80954e+005
  5.23139e+005 5.53358e+005 5.65291e+005 6.15674e+005 6.68064e+005 6.96262e+005
  7.06475e+005 7.08820e+005 7.29649e+005 7.39214e+005 7.47314e+005 7.47367e+005
  7.84535e+005 9.65437e+005 9.68158e+005 1.07225e+006 1.09901e+006 1.10375e+006
  1.22296e+006 1.38369e+006 1.42007e+006 2.10064e+006 2.63092e+006 2.71885e+006
  2.82839e+006 2.97558e+006 3.00667e+006 3.01849e+006 3.02075e+006 3.03992e+006
  3.06685e+006 3.07862e+006 3.18380e+006 3.21162e+006 3.21888e+006 3.22243e+006
  3.28916e+006 3.29484e+006 3.32419e+006 3.63039e+006 3.81020e+006 3.83327e+006
  3.86135e+006 3.86220e+006 3.86771e+006 3.87088e+006 3.88364e+006 3.88432e+006
  4.17704e+006 4.97427e+006 5.59684e+006
  
 FACTORIZATION WITH NEW SHIFT VALUE IS REQUIRED
  
 TRUST INTERVALS AFTER LANCZOS RUN AND COMPRESSION
  
 NUMBER OF TRUST INTERVALS    1
  
 -------------------------------------------------------------------------------------
 | KEY | INSIDE |      INERTIAS     |  SENTINELS  |   OUTSIDE   |  NEED TO FIND      |
 |      ENDS OF INTERVAL     |     ENDS OF SENTINEL      |   COMPUTATIONAL INTERVAL  |
 -------------------------------------------------------------------------------------
 |  +  |      0 |        0        0 |     0     0 |     0    58 |      0    50       |
 |-3.95574e+037 0.00000e+000 |-3.95574e+037 0.00000e+000 |-3.95574e+037 3.95574e+037 |
 -------------------------------------------------------------------------------------
  
 DATA FOR CHOOSING SHIFT
  
 NUMBER OF EIGENVALUES NEEDED IN THE PRIMARY TRUST INTERVAL   50
  
 NUMBER OF MODES FORMING SENTINEL TO THE RIGHT   29
 SHIFT RIGHT        9.42452e+006
  
 NUMBER OF MODES FORMING SENTINEL TO THE LEFT     0
 SHIFT LEFT         0.00000e+000
  
 SHIFTING TO THE RIGHT DIRECTION
 NEW SHIFT          9.42452e+006
  
 NUMBER OF NEGATIVE EIGENVALUES   107
 NUMBER OF POSITIVE EIGENVALUES   475
 NUMBER OF NEGATIVE EIGENVALUES NOT ASSOCIATED WITH LAGRANGE MULTIPLIERS   107
 NUMBER OF LAGRANGE MULTIPLIERS     0
  
 NUMBER OF SINGULARITIES            2
  
 NUMBER OF ZERO PIVOTS              0
 UPDATED SHIFT VALUE    1.03670e+007
  
 NUMBER OF NEGATIVE EIGENVALUES   117
 NUMBER OF POSITIVE EIGENVALUES   465
 NUMBER OF NEGATIVE EIGENVALUES NOT ASSOCIATED WITH LAGRANGE MULTIPLIERS   117
 NUMBER OF LAGRANGE MULTIPLIERS     0
  
 NUMBER OF SINGULARITIES            2
  
 NUMBER OF ZERO PIVOTS              0
 UPDATED SHIFT VALUE    1.14037e+007
  
 NUMBER OF NEGATIVE EIGENVALUES   122
 NUMBER OF POSITIVE EIGENVALUES   460
 NUMBER OF NEGATIVE EIGENVALUES NOT ASSOCIATED WITH LAGRANGE MULTIPLIERS   122
 NUMBER OF LAGRANGE MULTIPLIERS     0
  
 NUMBER OF SINGULARITIES            2
  
 NUMBER OF ZERO PIVOTS              0
 THREE FACTORIZATIONS IN A ROW FAILED. MOST LIKELY THAT AN INTERVAL CONTAINING UNDETERMINED EIGENVALUES IS LOCALIZED
 TRYING TO USE NEW SHIFT VALUE BETWEEN THE CURRENT ONE AND THE LAST ACCEPTABLE SHIFT VALUE    0.00000e+000
  
 NUMBER OF NEGATIVE EIGENVALUES     0
 NUMBER OF POSITIVE EIGENVALUES   582
 NUMBER OF NEGATIVE EIGENVALUES NOT ASSOCIATED WITH LAGRANGE MULTIPLIERS     0
 NUMBER OF LAGRANGE MULTIPLIERS     0
  
 NEW LANCZOS RUN IS REQUIRED
  
 TYPE OF RUN: EXPAND THE TRUST INTERVAL TO THE RIGHT
 EIGENVALUES NEEDED TO THE RIGHT    50
 EIGENVALUES NEEDED TO THE LEFT      0
 RIGHT BOUNDARY OF THE INTERVAL  3.95574e+037
 LEFT BOUNDARY OF THE INTERVAL   0.00000e+000
  
 TRUST INTERVALS AFTER FACTORIZATION AND COMPRESSION
  
 -------------------------------------------------------------------------------------
 | KEY | INSIDE |      INERTIAS     |  SENTINELS  |   OUTSIDE   |  NEED TO FIND      |
 |      ENDS OF INTERVAL     |     ENDS OF SENTINEL      |   COMPUTATIONAL INTERVAL  |
 -------------------------------------------------------------------------------------
 |  +  |      0 |        0        0 |     0     0 |     0    29 |      0    50       |
 |-3.95574e+037 0.00000e+000 |-3.95574e+037 0.00000e+000 |-3.95574e+037 3.95574e+037 |
 -------------------------------------------------------------------------------------
  
 LANCZOS RUN TERMINATED. NUMBER OF STEPS:   28
 ALL THE EIGENVALUES REQUESTED ON THIS LANCZOS RUN ARE FOUND
  
 NUMBER OF ACCEPTED EIGENVALUES  143
  
 ACCEPTED EIGENVALUES
  1.11996e+004 2.70646e+004 4.02584e+004 4.16960e+004 4.27723e+004 4.84467e+004
  5.49712e+004 5.51784e+004 6.03360e+004 6.05994e+004 6.55700e+004 6.77570e+004
  6.93182e+004 7.10748e+004 7.30484e+004 7.37317e+004 7.38311e+004 7.57142e+004
  7.97969e+004 1.27173e+005 1.96866e+005 2.64433e+005 2.68416e+005 3.00662e+005
  3.46226e+005 3.54414e+005 3.63824e+005 4.04572e+005 4.15328e+005 4.20077e+005
  4.23431e+005 4.37246e+005 4.46237e+005 4.47714e+005 4.60255e+005 4.80954e+005
  5.23139e+005 5.53358e+005 5.65291e+005 6.15674e+005 6.68064e+005 6.96262e+005
  7.06475e+005 7.08820e+005 7.29649e+005 7.39214e+005 7.47314e+005 7.47367e+005
  7.84535e+005 9.65437e+005 9.68158e+005 1.07225e+006 1.09901e+006 1.10375e+006
  1.22296e+006 1.38369e+006 1.42007e+006 2.10064e+006 2.63092e+006 2.71885e+006
  2.82839e+006 2.97558e+006 3.00667e+006 3.01849e+006 3.02075e+006 3.03992e+006
  3.06685e+006 3.07862e+006 3.18380e+006 3.21162e+006 3.21888e+006 3.22243e+006
  3.28916e+006 3.29484e+006 3.32419e+006 3.63039e+006 3.81020e+006 3.83327e+006
  3.86135e+006 3.86220e+006 3.86771e+006 3.87088e+006 3.88364e+006 3.88432e+006
  4.17704e+006 4.97427e+006 5.59684e+006 6.57202e+006 6.68147e+006 7.17561e+006
  7.50629e+006 7.89814e+006 7.97731e+006 8.11981e+006 8.14839e+006 8.33021e+006
  8.35797e+006 8.37193e+006 8.42639e+006 8.43329e+006 8.45263e+006 8.78489e+006
  8.79492e+006 9.18620e+006 9.23853e+006 9.31879e+006 9.33441e+006 9.40756e+006
  9.43823e+006 9.52109e+006 9.58129e+006 9.76483e+006 9.77240e+006 9.82053e+006
  1.01906e+007 1.02958e+007 1.03409e+007 1.03492e+007 1.04020e+007 1.05273e+007
  1.05574e+007 1.08477e+007 1.13558e+007 1.24171e+007 1.31273e+007 1.54166e+007
  1.54542e+007 1.60859e+007 1.65157e+007 1.65448e+007 1.72134e+007 1.76949e+007
  1.77119e+007 1.79185e+007 1.79368e+007 1.79984e+007 1.80701e+007 1.84725e+007
  1.89724e+007 1.99099e+007 2.05787e+007 2.09928e+007 2.26756e+007
  
 FACTORIZATION WITH NEW SHIFT VALUE IS REQUIRED
  
 TRUST INTERVALS AFTER LANCZOS RUN AND COMPRESSION
  
 NUMBER OF TRUST INTERVALS    1
  
 -------------------------------------------------------------------------------------
 | KEY | INSIDE |      INERTIAS     |  SENTINELS  |   OUTSIDE   |  NEED TO FIND      |
 |      ENDS OF INTERVAL     |     ENDS OF SENTINEL      |   COMPUTATIONAL INTERVAL  |
 -------------------------------------------------------------------------------------
 |  +  |      0 |        0        0 |     0     0 |     0    29 |      0    50       |
 |-3.95574e+037 0.00000e+000 |-3.95574e+037 0.00000e+000 |-3.95574e+037 3.95574e+037 |
 -------------------------------------------------------------------------------------
  
 DATA FOR CHOOSING SHIFT
  
 NUMBER OF EIGENVALUES NEEDED IN THE PRIMARY TRUST INTERVAL   50
  
 NUMBER OF MODES FORMING SENTINEL TO THE RIGHT   50
 SHIFT RIGHT        1.81616e+007
  
 NUMBER OF MODES FORMING SENTINEL TO THE LEFT     0
 SHIFT LEFT         0.00000e+000
  
 SHIFTING TO THE RIGHT DIRECTION
 NEW SHIFT          1.81616e+007
  
 NUMBER OF NEGATIVE EIGENVALUES   136
 NUMBER OF POSITIVE EIGENVALUES   446
 NUMBER OF NEGATIVE EIGENVALUES NOT ASSOCIATED WITH LAGRANGE MULTIPLIERS   136
 NUMBER OF LAGRANGE MULTIPLIERS     0
  
 NUMBER OF SINGULARITIES            1
  
 NUMBER OF ZERO PIVOTS              0
 UPDATED SHIFT VALUE    1.99777e+007
  
 NUMBER OF NEGATIVE EIGENVALUES   151
 NUMBER OF POSITIVE EIGENVALUES   431
 NUMBER OF NEGATIVE EIGENVALUES NOT ASSOCIATED WITH LAGRANGE MULTIPLIERS   151
 NUMBER OF LAGRANGE MULTIPLIERS     0
  
 NUMBER OF SINGULARITIES            1
  
 NUMBER OF ZERO PIVOTS              0
 UPDATED SHIFT VALUE    2.19755e+007
  
 NUMBER OF NEGATIVE EIGENVALUES   154
 NUMBER OF POSITIVE EIGENVALUES   428
 NUMBER OF NEGATIVE EIGENVALUES NOT ASSOCIATED WITH LAGRANGE MULTIPLIERS   154
 NUMBER OF LAGRANGE MULTIPLIERS     0
  
 NEW LANCZOS RUN IS REQUIRED
  
 TYPE OF RUN: EXPAND THE TRUST INTERVAL TO THE RIGHT
 EIGENVALUES NEEDED TO THE RIGHT     0
 EIGENVALUES NEEDED TO THE LEFT     12
 RIGHT BOUNDARY OF THE INTERVAL  2.19755e+007
 LEFT BOUNDARY OF THE INTERVAL   1.80701e+007
  
 TRUST INTERVALS AFTER FACTORIZATION AND COMPRESSION
  
 -------------------------------------------------------------------------------------
 | KEY | INSIDE |      INERTIAS     |  SENTINELS  |   OUTSIDE   |  NEED TO FIND      |
 |      ENDS OF INTERVAL     |     ENDS OF SENTINEL      |   COMPUTATIONAL INTERVAL  |
 -------------------------------------------------------------------------------------
 |  +  |      0 |        0        0 |     0    50 |     0    56 |      0    50       |
 |-3.95574e+037 0.00000e+000 |-3.95574e+037 1.80701e+007 |-3.95574e+037 3.95574e+037 |
 -------------------------------------------------------------------------------------
 |  -  |      0 |      154      154 |     0     0 |     0     0 |     12     0       |
 | 2.19755e+007 2.19755e+007 | 2.19755e+007 2.19755e+007 | 1.80701e+007 2.19755e+007 |
 -------------------------------------------------------------------------------------
  
 LANCZOS RUN TERMINATED. NUMBER OF STEPS:   11
 ALL THE EIGENVALUES REQUESTED ON THIS LANCZOS RUN ARE FOUND
  
 NUMBER OF ACCEPTED EIGENVALUES  155
  
 ACCEPTED EIGENVALUES
  1.11996e+004 2.70646e+004 4.02584e+004 4.16960e+004 4.27723e+004 4.84467e+004
  5.49712e+004 5.51784e+004 6.03360e+004 6.05994e+004 6.55700e+004 6.77570e+004
  6.93182e+004 7.10748e+004 7.30484e+004 7.37317e+004 7.38311e+004 7.57142e+004
  7.97969e+004 1.27173e+005 1.96866e+005 2.64433e+005 2.68416e+005 3.00662e+005
  3.46226e+005 3.54414e+005 3.63824e+005 4.04572e+005 4.15328e+005 4.20077e+005
  4.23431e+005 4.37246e+005 4.46237e+005 4.47714e+005 4.60255e+005 4.80954e+005
  5.23139e+005 5.53358e+005 5.65291e+005 6.15674e+005 6.68064e+005 6.96262e+005
  7.06475e+005 7.08820e+005 7.29649e+005 7.39214e+005 7.47314e+005 7.47367e+005
  7.84535e+005 9.65437e+005 9.68158e+005 1.07225e+006 1.09901e+006 1.10375e+006
  1.22296e+006 1.38369e+006 1.42007e+006 2.10064e+006 2.63092e+006 2.71885e+006
  2.82839e+006 2.97558e+006 3.00667e+006 3.01849e+006 3.02075e+006 3.03992e+006
  3.06685e+006 3.07862e+006 3.18380e+006 3.21162e+006 3.21888e+006 3.22243e+006
  3.28916e+006 3.29484e+006 3.32419e+006 3.63039e+006 3.81020e+006 3.83327e+006
  3.86135e+006 3.86220e+006 3.86771e+006 3.87088e+006 3.88364e+006 3.88432e+006
  4.17704e+006 4.97427e+006 5.59684e+006 6.57202e+006 6.68147e+006 7.17561e+006
  7.50629e+006 7.89814e+006 7.97731e+006 8.11981e+006 8.14839e+006 8.33021e+006
  8.35797e+006 8.37193e+006 8.42639e+006 8.43329e+006 8.45263e+006 8.78489e+006
  8.79492e+006 9.18620e+006 9.23853e+006 9.31879e+006 9.33441e+006 9.40756e+006
  9.43823e+006 9.52109e+006 9.58129e+006 9.76483e+006 9.77240e+006 9.82053e+006
  1.01906e+007 1.02958e+007 1.03409e+007 1.03492e+007 1.04020e+007 1.05273e+007
  1.05574e+007 1.08477e+007 1.13558e+007 1.24171e+007 1.31273e+007 1.54166e+007
  1.54542e+007 1.60859e+007 1.65157e+007 1.65448e+007 1.72134e+007 1.76949e+007
  1.77119e+007 1.79185e+007 1.79368e+007 1.79984e+007 1.80701e+007 1.82531e+007
  1.82575e+007 1.84725e+007 1.85141e+007 1.87228e+007 1.87415e+007 1.89724e+007
  1.93914e+007 1.94663e+007 1.94669e+007 1.95208e+007 1.95220e+007 1.98639e+007
  1.99099e+007 2.05787e+007 2.09928e+007 2.10064e+007 2.26756e+007
  
 THE REQUIRED NUMBER OF EIGENVALUES IS FOUND
  
 FINAL TRUST INTERVALS AFTER SUCCESSFUL LANCZOS RUN
  
 NUMBER OF TRUST INTERVALS    1
  
 -------------------------------------------------------------------------------------
 | KEY | INSIDE |      INERTIAS     |  SENTINELS  |   OUTSIDE   |  NEED TO FIND      |
 |      ENDS OF INTERVAL     |     ENDS OF SENTINEL      |   COMPUTATIONAL INTERVAL  |
 -------------------------------------------------------------------------------------
 |  +  |    154 |        0      154 |     0     0 |     0     0 |      0     0       |
 |-3.95574e+037 2.19755e+007 |-3.95574e+037 2.19755e+007 |-3.95574e+037 2.19755e+007 |
 -------------------------------------------------------------------------------------
  
 FIRST EIGENVALUE REQUESTED BY THE USER     1
  
 EIGENVALUES REQUESTED BY THE USER
  1.11996e+004 2.70646e+004 4.02584e+004 4.16960e+004 4.27723e+004 4.84467e+004
  5.49712e+004 5.51784e+004 6.03360e+004 6.05994e+004 6.55700e+004 6.77570e+004
  6.93182e+004 7.10748e+004 7.30484e+004 7.37317e+004 7.38311e+004 7.57142e+004
  7.97969e+004 1.27173e+005 1.96866e+005 2.64433e+005 2.68416e+005 3.00662e+005
  3.46226e+005 3.54414e+005 3.63824e+005 4.04572e+005 4.15328e+005 4.20077e+005
  4.23431e+005 4.37246e+005 4.46237e+005 4.47714e+005 4.60255e+005 4.80954e+005
  5.23139e+005 5.53358e+005 5.65291e+005 6.15674e+005 6.68064e+005 6.96262e+005
  7.06475e+005 7.08820e+005 7.29649e+005 7.39214e+005 7.47314e+005 7.47367e+005
  7.84535e+005 9.65437e+005
  
 EIGENVALUE EXTRACTION USING THE LANCZOS EIGENSOLVER IS COMPLETE
 NUMBER OF LANCZOS RUNS       :   4
 NUMBER OF LANCZOS STEPS      :  76
 NUMBER OF FACTORIZATIONS     :  12
 NUMBER OF BACK SUBSTITUTIONS :  77

     CHECK POINT  END OF SOLVER       

       ELAPSED USER TIME (SEC)      =   4.0000    
       ELAPSED SYSTEM TIME (SEC)    =  0.40000    
       ELAPSED TOTAL CPU TIME (SEC) =   4.4000    
       ELAPSED WALLCLOCK TIME (SEC) =          3


          THE ANALYSIS HAS BEEN COMPLETED



     ANALYSIS SUMMARY:
     TOTAL OF          1  INCREMENTS
                       0  CUTBACKS IN AUTOMATIC INCREMENTATION
                       0  ITERATIONS INCLUDING CONTACT ITERATIONS IF PRESENT
                      89  PASSES THROUGH THE EQUATION SOLVER OF WHICH 
                      12  INVOLVE MATRIX DECOMPOSITION, INCLUDING
                       0  DECOMPOSITION(S) OF THE MASS MATRIX
                       1  REORDERING OF EQUATIONS TO MINIMIZE WAVEFRONT
                       0  ADDITIONAL RESIDUAL EVALUATIONS FOR LINE SEARCHES
                       0  ADDITIONAL OPERATOR EVALUATIONS FOR LINE SEARCHES
                      33  WARNING MESSAGES DURING USER INPUT PROCESSING
                       0  WARNING MESSAGES DURING ANALYSIS
                       0  ANALYSIS WARNINGS ARE NUMERICAL PROBLEM MESSAGES
                       0  ANALYSIS WARNINGS ARE NEGATIVE EIGENVALUE MESSAGES
                       0  ERROR MESSAGES



     JOB TIME SUMMARY
       USER TIME (SEC)      =   4.9000    
       SYSTEM TIME (SEC)    =  0.80000    
       TOTAL CPU TIME (SEC) =   5.7000    
       WALLCLOCK TIME (SEC) =          6
