1

   Abaqus 3DEXPERIENCE R2017x                                  Date 25-Aug-2023   Time 18:54:26
   For use by NTNU NORGES TEKNISK NATURVITENSKAPELIGE UNIVERSITET under license from Dassault Systemes or its subsidiary.

                                                                                 
                                                                                 
 STEP    1     INCREMENT     1     STEP TIME    0.00    


                        S T E P       1     C A L C U L A T I O N   O F   E I G E N V A L U E S

                                            F O R   N A T U R A L   F R E Q U E N C I E S



                                                                                          

     THE LANCZOS EIGENSOLVER IS USED FOR THIS ANALYSIS
     Abaqus WILL COMPUTE UNCOUPLED
      STRUCTURAL AND ACOUSTIC MODES
     NUMBER OF EIGENVALUES                     50
     HIGHEST FREQUENCY OF INTEREST                  1.00000E+18
     MAXIMUM NUMBER OF STEPS WITHIN RUN               35
     BLOCK SIZE FOR LANCZOS PROCEDURE                  7
     THE EIGENVECTORS ARE SCALED SO THAT 
      THE LARGEST DISPLACEMENT ENTRY IN EACH VECTOR
      IS UNITY

     THIS IS A LINEAR PERTURBATION STEP.
     ALL LOADS ARE DEFINED AS CHANGE IN LOAD TO THE REFERENCE STATE

     EXTRAPOLATION WILL NOT BE USED

     CHARACTERISTIC ELEMENT LENGTH     0.336    

     DETAILS REGARDING ACTUAL SOLUTION WAVEFRONT REQUESTED

     DETAILED OUTPUT OF DIAGNOSTICS TO DATABASE REQUESTED

     PRINT OF INCREMENT NUMBER, TIME, ETC., TO THE MESSAGE FILE EVERY     1  INCREMENTS

 ***NOTE: SHARED MEMORY EXECUTION OF THE ELEMENT CALCULATIONS HAS BEEN TURNED 
          OFF DUE TO THE FOLLOWING FEATURE: SIM ARCHITECTURE IS NOT ACTIVE

     ELEMENT OPERATIONS WILL NOT BE CARRIED OUT IN PARALLEL

     COLLECTING MODEL CONSTRAINT INFORMATION FOR OVERCONSTRAINT CHECKS

     COLLECTING STEP CONSTRAINT INFORMATION FOR OVERCONSTRAINT CHECKS

     CHECK POINT   START OF SOLVER    
  
 COMPUTER PRECISION USED BY ABAQUS      2.22045e-016
 CONVERGENCE CRITERION FOR LANCZOS RUN  1.81899e-012
  
 NUMBER OF EQUATIONS                                                        1482
 NUMBER OF UNRESTRAINED DEGREES OF FREEDOM                                  1463
 HEURISTIC SCALE FOR THE FIRST NONZERO EIGENVALUES (PROBLEM SCALE)  4.01918e+002
 INITIAL SHIFT VALUE                                                0.00000e+000
  
 NUMBER OF CPUS USED BY DIRECT SOLVER     4
  
 NUMBER OF NEGATIVE EIGENVALUES     0
 NUMBER OF POSITIVE EIGENVALUES  1482
 NUMBER OF NEGATIVE EIGENVALUES NOT ASSOCIATED WITH LAGRANGE MULTIPLIERS     0
 NUMBER OF LAGRANGE MULTIPLIERS     0
  
 COMPUTATIONAL INTERVAL FOR THE INITIAL LANCZOS RUN
 
 EIGENVALUES NEEDED TO THE RIGHT OF SHIFT VALUE   50
 EIGENVALUES NEEDED TO THE LEFT OF SHIFT VALUE     0
 RIGHT BOUNDARY OF THE COMPUTATIONAL INTERVAL  3.95574e+037
 LEFT BOUNDARY OF THE COMPUTATIONAL INTERVAL  -3.95574e+037
  
 LANCZOS RUN TERMINATED. NUMBER OF STEPS:   17
 ALL THE EIGENVALUES REQUESTED ON THIS LANCZOS RUN ARE FOUND
  
 NUMBER OF ACCEPTED EIGENVALUES   53
  
 ACCEPTED EIGENVALUES
  1.01182e+004 2.23824e+004 3.04001e+004 3.56988e+004 3.81121e+004 3.99701e+004
  4.09906e+004 4.89095e+004 5.15934e+004 5.22410e+004 7.03407e+004 7.05098e+004
  7.07322e+004 7.30085e+004 7.76755e+004 8.54637e+004 8.56450e+004 9.34202e+004
  9.62358e+004 1.55563e+005 2.07626e+005 2.23510e+005 2.54310e+005 2.60582e+005
  2.81849e+005 3.21903e+005 3.24606e+005 3.37849e+005 3.49574e+005 3.99658e+005
  4.05514e+005 4.16157e+005 4.22627e+005 4.46582e+005 4.48052e+005 4.73345e+005
  4.86043e+005 5.02229e+005 5.05070e+005 5.98791e+005 6.04909e+005 6.07307e+005
  7.06345e+005 7.32610e+005 7.48812e+005 7.74208e+005 8.09763e+005 8.45082e+005
  8.54499e+005 9.11406e+005 9.47112e+005 1.01412e+006 1.07144e+006
  
 FACTORIZATION WITH NEW SHIFT VALUE IS REQUIRED
  
 TRUST INTERVALS AFTER LANCZOS RUN AND COMPRESSION
  
 NUMBER OF TRUST INTERVALS    1
  
 -------------------------------------------------------------------------------------
 | KEY | INSIDE |      INERTIAS     |  SENTINELS  |   OUTSIDE   |  NEED TO FIND      |
 |      ENDS OF INTERVAL     |     ENDS OF SENTINEL      |   COMPUTATIONAL INTERVAL  |
 -------------------------------------------------------------------------------------
 |  +  |      0 |        0        0 |     0     0 |     0     0 |      0    50       |
 |-3.95574e+037 0.00000e+000 |-3.95574e+037 0.00000e+000 |-3.95574e+037 3.95574e+037 |
 -------------------------------------------------------------------------------------
  
 DATA FOR CHOOSING SHIFT
  
 NUMBER OF EIGENVALUES NEEDED IN THE PRIMARY TRUST INTERVAL   50
  
 NUMBER OF MODES FORMING SENTINEL TO THE RIGHT   53
 SHIFT RIGHT        9.29259e+005
  
 NUMBER OF MODES FORMING SENTINEL TO THE LEFT     0
 SHIFT LEFT         0.00000e+000
  
 SHIFTING TO THE RIGHT DIRECTION
 NEW SHIFT          9.29259e+005
  
 NUMBER OF NEGATIVE EIGENVALUES    50
 NUMBER OF POSITIVE EIGENVALUES  1432
 NUMBER OF NEGATIVE EIGENVALUES NOT ASSOCIATED WITH LAGRANGE MULTIPLIERS    50
 NUMBER OF LAGRANGE MULTIPLIERS     0
  
 THE REQUIRED NUMBER OF EIGENVALUES IS FOUND
  
 FINAL TRUST INTERVAL
  
 -------------------------------------------------------------------------------------
 | KEY | INSIDE |      INERTIAS     |  SENTINELS  |   OUTSIDE   |  NEED TO FIND      |
 |      ENDS OF INTERVAL     |     ENDS OF SENTINEL      |   COMPUTATIONAL INTERVAL  |
 -------------------------------------------------------------------------------------
 |  +  |     50 |        0       50 |     0     0 |     0     0 |      0     0       |
 |-3.95574e+037 9.29259e+005 |-3.95574e+037 9.29259e+005 |-3.95574e+037 9.29259e+005 |
 -------------------------------------------------------------------------------------
  
 FIRST EIGENVALUE REQUESTED BY THE USER     1
  
 EIGENVALUES REQUESTED BY THE USER
  1.01182e+004 2.23824e+004 3.04001e+004 3.56988e+004 3.81121e+004 3.99701e+004
  4.09906e+004 4.89095e+004 5.15934e+004 5.22410e+004 7.03407e+004 7.05098e+004
  7.07322e+004 7.30085e+004 7.76755e+004 8.54637e+004 8.56450e+004 9.34202e+004
  9.62358e+004 1.55563e+005 2.07626e+005 2.23510e+005 2.54310e+005 2.60582e+005
  2.81849e+005 3.21903e+005 3.24606e+005 3.37849e+005 3.49574e+005 3.99658e+005
  4.05514e+005 4.16157e+005 4.22627e+005 4.46582e+005 4.48052e+005 4.73345e+005
  4.86043e+005 5.02229e+005 5.05070e+005 5.98791e+005 6.04909e+005 6.07307e+005
  7.06345e+005 7.32610e+005 7.48812e+005 7.74208e+005 8.09763e+005 8.45082e+005
  8.54499e+005 9.11406e+005
  
 EIGENVALUE EXTRACTION USING THE LANCZOS EIGENSOLVER IS COMPLETE
 NUMBER OF LANCZOS RUNS       :   1
 NUMBER OF LANCZOS STEPS      :  17
 NUMBER OF FACTORIZATIONS     :   2
 NUMBER OF BACK SUBSTITUTIONS :  18

     CHECK POINT  END OF SOLVER       

       ELAPSED USER TIME (SEC)      =  0.80000    
       ELAPSED SYSTEM TIME (SEC)    =  0.10000    
       ELAPSED TOTAL CPU TIME (SEC) =  0.90000    
       ELAPSED WALLCLOCK TIME (SEC) =          1


          THE ANALYSIS HAS BEEN COMPLETED



     ANALYSIS SUMMARY:
     TOTAL OF          1  INCREMENTS
                       0  CUTBACKS IN AUTOMATIC INCREMENTATION
                       0  ITERATIONS INCLUDING CONTACT ITERATIONS IF PRESENT
                      20  PASSES THROUGH THE EQUATION SOLVER OF WHICH 
                       2  INVOLVE MATRIX DECOMPOSITION, INCLUDING
                       0  DECOMPOSITION(S) OF THE MASS MATRIX
                       1  REORDERING OF EQUATIONS TO MINIMIZE WAVEFRONT
                       0  ADDITIONAL RESIDUAL EVALUATIONS FOR LINE SEARCHES
                       0  ADDITIONAL OPERATOR EVALUATIONS FOR LINE SEARCHES
                      33  WARNING MESSAGES DURING USER INPUT PROCESSING
                       0  WARNING MESSAGES DURING ANALYSIS
                       0  ANALYSIS WARNINGS ARE NUMERICAL PROBLEM MESSAGES
                       0  ANALYSIS WARNINGS ARE NEGATIVE EIGENVALUE MESSAGES
                       0  ERROR MESSAGES



     JOB TIME SUMMARY
       USER TIME (SEC)      =   1.4000    
       SYSTEM TIME (SEC)    =  0.10000    
       TOTAL CPU TIME (SEC) =   1.5000    
       WALLCLOCK TIME (SEC) =          2
