 Abaqus/Standard 3DEXPERIENCE R2017x                  DATE 28-Feb-2022 TIME 13:21:07
 SUMMARY OF JOB INFORMATION:
 STEP  INC ATT SEVERE EQUIL TOTAL  TOTAL      STEP       INC OF       DOF    IF
               DISCON ITERS ITERS  TIME/    TIME/LPF    TIME/LPF    MONITOR RIKS
               ITERS               FREQ
   1     1   1     0     2     2  0.100      0.100      0.1000    
   1     2   1     0     1     1  0.200      0.200      0.1000    
   1     3   1     0     1     1  0.350      0.350      0.1500    
   1     4   1     0     2     2  0.575      0.575      0.2250    
   1     5   1     0     2     2  0.913      0.913      0.3375    
   1     6   1     0     2     2  1.00       1.00       0.08750   
   2     1   1     0     2     2  1.00       1.00e-008  1.000e-008
   2     2   1     0     1     1  1.00       2.00e-008  1.000e-008
   2     3   1     0     1     1  1.00       3.50e-008  1.500e-008
   2     4   1     0     1     1  1.00       5.75e-008  2.250e-008
   2     5   1     0     1     1  1.00       9.13e-008  3.375e-008
   2     6   1     0     1     1  1.00       1.42e-007  5.063e-008
   2     7   1     0     1     1  1.00       2.18e-007  7.594e-008
   2     8   1     0     1     1  1.00       3.32e-007  1.139e-007
   2     9   1     0     1     1  1.00       5.03e-007  1.709e-007
   2    10   1     0     1     1  1.00       7.59e-007  2.563e-007
   2    11   1     0     1     1  1.00       1.14e-006  3.844e-007
   2    12   1     0     1     1  1.00       1.72e-006  5.767e-007
   2    13   1     0     1     1  1.00       2.58e-006  8.650e-007
   2    14   1     0     1     1  1.00       3.88e-006  1.297e-006
   2    15   1     0     2     2  1.00       5.83e-006  1.946e-006
   2    16   1     0     2     2  1.00       8.75e-006  2.919e-006
   2    17   1     0     2     2  1.00       1.31e-005  4.379e-006
   2    18   1     0     2     2  1.00       1.97e-005  6.568e-006
   2    19   1     0     2     2  1.00       2.95e-005  9.853e-006
   2    20   1     0     2     2  1.00       4.43e-005  1.478e-005
   2    21   1     0     2     2  1.00       6.65e-005  2.217e-005
   2    22   1     0     2     2  1.00       9.97e-005  3.325e-005
   2    23   1     0     2     2  1.00       0.000150   4.988e-005
   2    24   1     0     2     2  1.00       0.000224   7.482e-005
   2    25   1     0     2     2  1.00       0.000337   0.0001122 
   2    26   1     0     2     2  1.00       0.000505   0.0001683 
   2    27   1     0     2     2  1.00       0.000758   0.0002525 
   2    28   1     0     2     2  1.00       0.00114    0.0003788 
   2    29   1     0     2     2  1.00       0.00170    0.0005682 
   2    30   1     0     2     2  1.00       0.00256    0.0008522 
   2    31   1     0     2     2  1.00       0.00384    0.001278  
   2    32   1     0     2     2  1.01       0.00575    0.001918  
   2    33   1     0     2     2  1.01       0.00863    0.002876  
   2    34   1     0     2     2  1.01       0.0129     0.004314  
   2    35   1     0     2     2  1.02       0.0194     0.006472  
   2    36   1     0     3     3  1.03       0.0291     0.009707  
   2    37   1     0     3     3  1.04       0.0437     0.01456   
   2    38   1     0     3     3  1.07       0.0655     0.02184   
   2    39   1     0     4     4  1.10       0.0983     0.03276   
   2    40   1     0     3     3  1.15       0.147      0.04914   
   2    41   1     0     4     4  1.22       0.221      0.07372   
   2    42   1     0     4     4  1.33       0.332      0.1106    
   2    43   1     0     4     4  1.50       0.498      0.1659    
   2    44   1     0     2     2  1.75       0.746      0.2488    
   2    45   1     0     2     2  2.00       1.00       0.2536    
   3     1   1     0     6     6  2.00       1.00e-006  1.000e-006
   3     2   1U    0     6     6  2.00       1.00e-006  1.000e-006
   3     2   2     0     9     9  2.00       1.25e-006  2.500e-007
   3     3   1     0     6     6  2.00       1.50e-006  2.500e-007
   3     4   1     0     2     2  2.00       1.75e-006  2.500e-007
   3     5   1     0     1     1  2.00       2.00e-006  2.500e-007
   3     6   1     0     3     3  2.00       2.38e-006  3.750e-007
   3     7   1     0     1     1  2.00       2.94e-006  5.625e-007
   3     8   1     0     3     3  2.00       3.78e-006  8.437e-007
   3     9   1     0     4     4  2.00       5.05e-006  1.266e-006
   3    10   1     0     1     1  2.00       6.95e-006  1.898e-006
   3    11   1     0     1     1  2.00       9.79e-006  2.848e-006
   3    12   1     0     1     1  2.00       1.41e-005  4.271e-006
   3    13   1     0     1     1  2.00       2.05e-005  6.407e-006
   3    14   1     0     2     2  2.00       3.01e-005  9.611e-006
   3    15   1     0     1     1  2.00       4.45e-005  1.442e-005
   3    16   1     0     1     1  2.00       6.61e-005  2.162e-005
   3    17   1     0     1     1  2.00       9.86e-005  3.244e-005
   3    18   1     0     1     1  2.00       0.000147   4.865e-005
   3    19   1     0     1     1  2.00       0.000220   7.298e-005
   3    20   1     0     1     1  2.00       0.000330   0.0001095 
   3    21   1     0     1     1  2.00       0.000494   0.0001642 
   3    22   1     0     1     1  2.00       0.000740   0.0002463 
   3    23   1     0     1     1  2.00       0.00111    0.0003695 
   3    24   1     0     1     1  2.00       0.00166    0.0005542 
   3    25   1     0     1     1  2.00       0.00250    0.0008313 
   3    26   1     0     1     1  2.00       0.00374    0.001247  
   3    27   1     0     1     1  2.01       0.00561    0.001870  
   3    28   1     0     1     1  2.01       0.00842    0.002806  
   3    29   1     0     1     1  2.01       0.0126     0.004209  
   3    30   1     0     1     1  2.02       0.0189     0.006313  
   3    31   1     0     1     1  2.03       0.0284     0.009469  
   3    32   1     0     1     1  2.04       0.0426     0.01420   
   3    33   1     0     1     1  2.06       0.0639     0.02131   
   3    34   1     0     1     1  2.10       0.0959     0.03196   
   3    35   1     0     1     1  2.14       0.144      0.04794   
   3    36   1     0     1     1  2.22       0.216      0.07191   
   3    37   1     0     5     5  2.32       0.324      0.1079    
   3    38   1     0     4     4  2.43       0.431      0.1079    
   3    39   1     0     1     1  2.54       0.539      0.1079    
   3    40   1     0     1     1  2.70       0.701      0.1618    
   3    41   1     0     3     3  2.94       0.944      0.2427    
   3    42   1     0     1     1  3.00       1.00       0.05622   
   4     1   1     0     2     2  3.10       0.100      0.1000    
   4     2   1     0     5     5  3.20       0.200      0.1000    
   4     3   1     0     4     4  3.30       0.300      0.1000    
   4     4   1     0     1     1  3.40       0.400      0.1000    
   4     5   1     0     2     2  3.55       0.550      0.1500    
   4     6   1     0     2     2  3.77       0.775      0.2250    
   4     7   1     0     1     1  4.00       1.00       0.2250    
   5     1   1     0     0     0  4.00       1.00e-036  1.000e-036
                          
 THE ANALYSIS HAS COMPLETED SUCCESSFULLY
