 Abaqus/Standard 3DEXPERIENCE R2017x                  DATE 11-Feb-2022 TIME 16:05:30
 SUMMARY OF JOB INFORMATION:
 STEP  INC ATT SEVERE EQUIL TOTAL  TOTAL      STEP       INC OF       DOF    IF
               DISCON ITERS ITERS  TIME/    TIME/LPF    TIME/LPF    MONITOR RIKS
               ITERS               FREQ
   1     1   1     0     2     2  0.100      0.100      0.1000    
   1     2   1     0     2     2  0.200      0.200      0.1000    
   1     3   1     0     2     2  0.350      0.350      0.1500    
   1     4   1     0     2     2  0.575      0.575      0.2250    
   1     5   1     0     2     2  0.913      0.913      0.3375    
   1     6   1     0     2     2  1.00       1.00       0.08750   
   2     1   1     0     4     4  1.00       1.00e-006  1.000e-006
   2     2   1     0     2     2  1.00       2.00e-006  1.000e-006
   2     3   1     0     2     2  1.00       3.50e-006  1.500e-006
   2     4   1     0     2     2  1.00       5.75e-006  2.250e-006
   2     5   1     0     2     2  1.00       9.12e-006  3.375e-006
   2     6   1     0     2     2  1.00       1.42e-005  5.062e-006
   2     7   1     0     2     2  1.00       2.18e-005  7.594e-006
   2     8   1     0     2     2  1.00       3.32e-005  1.139e-005
   2     9   1     0     2     2  1.00       5.03e-005  1.709e-005
   2    10   1     0     2     2  1.00       7.59e-005  2.563e-005
   2    11   1     0     2     2  1.00       0.000114   3.844e-005
   2    12   1     0     2     2  1.00       0.000172   5.767e-005
   2    13   1     0     2     2  1.00       0.000258   8.650e-005
   2    14   1     0     2     2  1.00       0.000388   0.0001297 
   2    15   1     0     2     2  1.00       0.000583   0.0001946 
   2    16   1     0     2     2  1.00       0.000875   0.0002919 
   2    17   1     0     2     2  1.00       0.00131    0.0004379 
   2    18   1     0     2     2  1.00       0.00197    0.0006568 
   2    19   1     0     2     2  1.00       0.00295    0.0009853 
   2    20   1     0     2     2  1.00       0.00443    0.001478  
   2    21   1     0     2     2  1.01       0.00665    0.002217  
   2    22   1     0     2     2  1.01       0.00997    0.003325  
   2    23   1     0     2     2  1.01       0.0150     0.004988  
   2    24   1     0     2     2  1.02       0.0224     0.007482  
   2    25   1     0     2     2  1.03       0.0337     0.01122   
   2    26   1     0     3     3  1.05       0.0505     0.01683   
   2    27   1     0     3     3  1.08       0.0758     0.02525   
   2    28   1     0     3     3  1.11       0.114      0.03788   
   2    29   1     0     3     3  1.17       0.170      0.05682   
   2    30   1     0     2     2  1.26       0.256      0.08522   
   2    31   1     0     2     2  1.38       0.384      0.1278    
   2    32   1     0     2     2  1.58       0.575      0.1918    
   2    33   1     0     2     2  1.86       0.863      0.2876    
   2    34   1     0     2     2  2.00       1.00       0.1371    
   3     1   1     0     3     3  2.00       0.000100   0.0001000 
   3     2   1     0     1     1  2.00       0.000200   0.0001000 
   3     3   1     0     1     1  2.00       0.000350   0.0001500 
   3     4   1     0     1     1  2.00       0.000575   0.0002250 
   3     5   1     0     1     1  2.00       0.000913   0.0003375 
   3     6   1     0     5     5  2.00       0.00142    0.0005062 
   3     7   1     0     1     1  2.00       0.00193    0.0005062 
   3     8   1     0     1     1  2.00       0.00243    0.0005062 
   3     9   1     0     4     4  2.00       0.00319    0.0007594 
   3    10   1     0     1     1  2.00       0.00433    0.001139  
   3    11   1     0     1     1  2.01       0.00604    0.001709  
   3    12   1     0     1     1  2.01       0.00860    0.002563  
   3    13   1     0     3     3  2.01       0.0124     0.003844  
   3    14   1     0     5     5  2.02       0.0182     0.005767  
   3    15   1     0     4     4  2.02       0.0240     0.005767  
   3    16   1     0     4     4  2.03       0.0297     0.005767  
   3    17   1     0     4     4  2.04       0.0384     0.008650  
   3    18   1     0     4     4  2.05       0.0514     0.01297   
   3    19   1     0     1     1  2.07       0.0708     0.01946   
   3    20   1     0     2     2  2.10       0.100      0.02919   
   3    21   1     0     2     2  2.14       0.144      0.04379   
   3    22   1     0     2     2  2.21       0.209      0.06568   
   3    23   1     0     2     2  2.31       0.308      0.09853   
   3    24   1     0     2     2  2.46       0.456      0.1478    
   3    25   1     0     2     2  2.68       0.677      0.2217    
   3    26   1     0     2     2  3.00       1.00       0.3225    
   4     1   1     0     1     1  3.10       0.100      0.1000    
   4     2   1U    0     4     4  3.10       0.100      0.1000    
   4     2   2U    0     4     4  3.10       0.100      0.02500   
   4     2   3     0     5     5  3.11       0.106      0.006250  
   4     3   1U    0     4     4  3.11       0.106      0.006250  
   4     3   2     0     5     5  3.11       0.108      0.001563  
   4     4   1     0     1     1  3.11       0.109      0.001563  
   4     5   1     0     1     1  3.11       0.111      0.001563  
   4     6   1     0     1     1  3.11       0.113      0.002344  
   4     7   1     0     1     1  3.12       0.117      0.003516  
   4     8   1     0     1     1  3.12       0.122      0.005273  
   4     9   1     0     1     1  3.13       0.130      0.007910  
   4    10   1     0     1     1  3.14       0.142      0.01187   
   4    11   1     0     1     1  3.16       0.160      0.01780   
   4    12   1     0     1     1  3.19       0.186      0.02670   
   4    13   1     0     1     1  3.23       0.226      0.04005   
   4    14   1     0     1     1  3.29       0.286      0.06007   
   4    15   1     0     1     1  3.38       0.377      0.09010   
   4    16   1     0     1     1  3.51       0.512      0.1352    
   4    17   1     0     1     1  3.71       0.714      0.2027    
   4    18   1     0     1     1  4.00       1.00       0.2856    
   5     1   1     0     0     0  4.00       1.00e-036  1.000e-036
                          
 THE ANALYSIS HAS COMPLETED SUCCESSFULLY
