1

   Abaqus 3DEXPERIENCE R2017x                                  Date 10-Feb-2022   Time 14:13:30
   For use by NTNU NORGES TEKNISK NATURVITENSKAPELIGE UNIVERSITET under license from Dassault Systemes or its subsidiary.



                         The Abaqus Software is a product of:

                           Dassault Systemes SIMULIA Corp.
                           1301 Atwood Avenue, Suite 101W
                              Johnston, RI 02919, USA
 


                   The Abaqus Software is available only under license
                   from Dassault Systemes or its subsidiary and may be
                   used or reproduced only in accordance with the terms
                   of such license.
 
                          On machine NTNU08422 
                          you are authorized to run
                          Abaqus/Standard until 30-Sep-2022

                          Your site id is: 100000000001981 


 
                    For assistance or any other information you may
                    obtain contact information for your local office
                    from the world wide web at:

                      http://www.3ds.com/products/simulia/locations/

 
                * * * * * * * * * * * * * * * * * * * * * * * * * * * * * * 
                *                                                         * 
                *                   *****************                     * 
                *                   *  N O T I C E  *                     * 
                *                   *****************                     * 
                *                                                         * 
                *                                                         * 
                *               Abaqus 3DEXPERIENCE R2017x                * 
                *                                                         * 
                *          BUILD ID: 2016_09_27-23.54.59 126836           * 
                *                                                         * 
                *                                                         * 
                *  Please make sure you are using                         * 
                *  release 3DEXPERIENCE R2017x manuals                    * 
                *  plus the notes accompanying this release.              * 
                *                                                         * 
                *                                                         * 
                *                                                         * 
                *                                                         * 
                *                                                         * 
                *   This program may not be used for commercial purposes  * 
                *           without payment of a commercial fee.          * 
                *                                                         * 
                * * * * * * * * * * * * * * * * * * * * * * * * * * * * * * 


 



     PROCESSING PART, INSTANCE, AND ASSEMBLY INFORMATION
   *******************************************************


 ***ERROR: in keyword *SHELLSECTION, file "TestSulafjorden.inp", line 9789: 
           OdbError: The number of integration points must be odd.
 ***NOTE: DUE TO AN INPUT ERROR THE ANALYSIS PRE-PROCESSOR HAS BEEN UNABLE TO 
          INTERPRET SOME DATA.  SUBSEQUENT ERRORS MAY BE CAUSED BY THIS OMISSION

     END PROCESSING PART, INSTANCE, AND ASSEMBLY INFORMATION
   ***********************************************************




     OPTIONS BEING PROCESSED
   ***************************


  *Node
  *Element, type=B31
  *Element, type=B33
  *Element, type=B31
  *Element, type=SPRING2
  *Element, type=B31
  *Element, type=SPRING2
  *Element, type=B31
  *Element, type=S4R
  *Nset, nset=ASSEMBLYSUSPENSIONBRIDGE_SUSPENSIONBRIDGE_BEARINGLOW1_NORTH
  *Nset, nset=ASSEMBLYSUSPENSIONBRIDGE_SUSPENSIONBRIDGE_BEARINGLOW1_SOUTH
  *Nset, nset=ASSEMBLYSUSPENSIONBRIDGE_SUSPENSIONBRIDGE_BEARINGLOW2_NORTH
  *Nset, nset=ASSEMBLYSUSPENSIONBRIDGE_SUSPENSIONBRIDGE_BEARINGLOW2_SOUTH
  *Nset, nset=ASSEMBLYSUSPENSIONBRIDGE_SUSPENSIONBRIDGE_BEARINGTOP1_NORTH
  *Nset, nset=ASSEMBLYSUSPENSIONBRIDGE_SUSPENSIONBRIDGE_BEARINGTOP1_SOUTH
  *Nset, nset=ASSEMBLYSUSPENSIONBRIDGE_SUSPENSIONBRIDGE_BEARINGTOP2_NORTH
  *Nset, nset=ASSEMBLYSUSPENSIONBRIDGE_SUSPENSIONBRIDGE_BEARINGTOP2_SOUTH
  *Nset, nset=ASSEMBLYSUSPENSIONBRIDGE_SUSPENSIONBRIDGE_BRIDGEDECK1_COG
  *Nset, nset=ASSEMBLYSUSPENSIONBRIDGE_SUSPENSIONBRIDGE_BRIDGEDECK2_COG
  *Nset, nset=ASSEMBLYSUSPENSIONBRIDGE_SUSPENSIONBRIDGE_BRIDGEDECK_GAPMID
  *Nset, nset=ASSEMBLYSUSPENSIONBRIDGE_SUSPENSIONBRIDGE_BRIDGEDECK_INNER_EAST
  *Nset, nset=ASSEMBLYSUSPENSIONBRIDGE_SUSPENSIONBRIDGE_BRIDGEDECK_INNER_WEST
  *Nset, nset=ASSEMBLYSUSPENSIONBRIDGE_SUSPENSIONBRIDGE_BRIDGEOUTER_EAST
  *Nset, nset=ASSEMBLYSUSPENSIONBRIDGE_SUSPENSIONBRIDGE_BRIDGEOUTER_WEST
  *Nset, nset=ASSEMBLYSUSPENSIONBRIDGE_SUSPENSIONBRIDGE_CABLE_MAIN_ANCHORAGE
  *Nset, nset=ASSEMBLYSUSPENSIONBRIDGE_SUSPENSIONBRIDGE_CABLE_MAIN_EAST
  *Nset, nset=ASSEMBLYSUSPENSIONBRIDGE_SUSPENSIONBRIDGE_CABLE_MAIN_SPAN
  *Nset, nset=ASSEMBLYSUSPENSIONBRIDGE_SUSPENSIONBRIDGE_CABLE_MAIN_TOP
  *Nset, nset=ASSEMBLYSUSPENSIONBRIDGE_SUSPENSIONBRIDGE_CABLE_MAIN_TOP_NORTH_EAST
  *Nset, nset=ASSEMBLYSUSPENSIONBRIDGE_SUSPENSIONBRIDGE_CABLE_MAIN_TOP_NORTH_WEST
  *Nset, nset=ASSEMBLYSUSPENSIONBRIDGE_SUSPENSIONBRIDGE_CABLE_MAIN_TOP_SOUTH_EAST
  *Nset, nset=ASSEMBLYSUSPENSIONBRIDGE_SUSPENSIONBRIDGE_CABLE_MAIN_TOP_SOUTH_WEST
  *Nset, nset=ASSEMBLYSUSPENSIONBRIDGE_SUSPENSIONBRIDGE_CABLE_MAIN_WEST
  *Nset, nset=ASSEMBLYSUSPENSIONBRIDGE_SUSPENSIONBRIDGE_TOWER_BASE
  *Nset, nset=ASSEMBLYSUSPENSIONBRIDGE_SUSPENSIONBRIDGE_TOWER_CROSSBEAM_NORTH_1
  *Nset, nset=ASSEMBLYSUSPENSIONBRIDGE_SUSPENSIONBRIDGE_TOWER_CROSSBEAM_NORTH_1_END
  *Nset, nset=ASSEMBLYSUSPENSIONBRIDGE_SUSPENSIONBRIDGE_TOWER_CROSSBEAM_NORTH_1_START
  *Nset, nset=ASSEMBLYSUSPENSIONBRIDGE_SUSPENSIONBRIDGE_TOWER_CROSSBEAM_NORTH_2
  *Nset, nset=ASSEMBLYSUSPENSIONBRIDGE_SUSPENSIONBRIDGE_TOWER_CROSSBEAM_NORTH_2_END
  *Nset, nset=ASSEMBLYSUSPENSIONBRIDGE_SUSPENSIONBRIDGE_TOWER_CROSSBEAM_NORTH_2_START
  *Nset, nset=ASSEMBLYSUSPENSIONBRIDGE_SUSPENSIONBRIDGE_TOWER_CROSSBEAM_NORTH_3
  *Nset, nset=ASSEMBLYSUSPENSIONBRIDGE_SUSPENSIONBRIDGE_TOWER_CROSSBEAM_NORTH_3_END
  *Nset, nset=ASSEMBLYSUSPENSIONBRIDGE_SUSPENSIONBRIDGE_TOWER_CROSSBEAM_NORTH_3_START
  *Nset, nset=ASSEMBLYSUSPENSIONBRIDGE_SUSPENSIONBRIDGE_TOWER_CROSSBEAM_NORTH_4
  *Nset, nset=ASSEMBLYSUSPENSIONBRIDGE_SUSPENSIONBRIDGE_TOWER_CROSSBEAM_NORTH_4_END
  *Nset, nset=ASSEMBLYSUSPENSIONBRIDGE_SUSPENSIONBRIDGE_TOWER_CROSSBEAM_NORTH_4_START
  *Nset, nset=ASSEMBLYSUSPENSIONBRIDGE_SUSPENSIONBRIDGE_TOWER_CROSSBEAM_NORTH_5
  *Nset, nset=ASSEMBLYSUSPENSIONBRIDGE_SUSPENSIONBRIDGE_TOWER_CROSSBEAM_NORTH_5_END
  *Nset, nset=ASSEMBLYSUSPENSIONBRIDGE_SUSPENSIONBRIDGE_TOWER_CROSSBEAM_NORTH_5_START
  *Nset, nset=ASSEMBLYSUSPENSIONBRIDGE_SUSPENSIONBRIDGE_TOWER_CROSSBEAM_SOUTH_1
  *Nset, nset=ASSEMBLYSUSPENSIONBRIDGE_SUSPENSIONBRIDGE_TOWER_CROSSBEAM_SOUTH_1_END
  *Nset, nset=ASSEMBLYSUSPENSIONBRIDGE_SUSPENSIONBRIDGE_TOWER_CROSSBEAM_SOUTH_1_START
  *Nset, nset=ASSEMBLYSUSPENSIONBRIDGE_SUSPENSIONBRIDGE_TOWER_CROSSBEAM_SOUTH_2
  *Nset, nset=ASSEMBLYSUSPENSIONBRIDGE_SUSPENSIONBRIDGE_TOWER_CROSSBEAM_SOUTH_2_END
  *Nset, nset=ASSEMBLYSUSPENSIONBRIDGE_SUSPENSIONBRIDGE_TOWER_CROSSBEAM_SOUTH_2_START
  *Nset, nset=ASSEMBLYSUSPENSIONBRIDGE_SUSPENSIONBRIDGE_TOWER_CROSSBEAM_SOUTH_3
  *Nset, nset=ASSEMBLYSUSPENSIONBRIDGE_SUSPENSIONBRIDGE_TOWER_CROSSBEAM_SOUTH_3_END
  *Nset, nset=ASSEMBLYSUSPENSIONBRIDGE_SUSPENSIONBRIDGE_TOWER_CROSSBEAM_SOUTH_3_START
  *Nset, nset=ASSEMBLYSUSPENSIONBRIDGE_SUSPENSIONBRIDGE_TOWER_CROSSBEAM_SOUTH_4
  *Nset, nset=ASSEMBLYSUSPENSIONBRIDGE_SUSPENSIONBRIDGE_TOWER_CROSSBEAM_SOUTH_4_END
  *Nset, nset=ASSEMBLYSUSPENSIONBRIDGE_SUSPENSIONBRIDGE_TOWER_CROSSBEAM_SOUTH_4_START
  *Nset, nset=ASSEMBLYSUSPENSIONBRIDGE_SUSPENSIONBRIDGE_TOWER_CROSSBEAM_SOUTH_5
  *Nset, nset=ASSEMBLYSUSPENSIONBRIDGE_SUSPENSIONBRIDGE_TOWER_CROSSBEAM_SOUTH_5_END
  *Nset, nset=ASSEMBLYSUSPENSIONBRIDGE_SUSPENSIONBRIDGE_TOWER_CROSSBEAM_SOUTH_5_START
  *Nset, nset=ASSEMBLYSUSPENSIONBRIDGE_SUSPENSIONBRIDGE_TOWER_LEG
  *Nset, nset=ASSEMBLYSUSPENSIONBRIDGE_SUSPENSIONBRIDGE_TOWER_LEG_NORTH_CROSSBEAM_1_END
  *Nset, nset=ASSEMBLYSUSPENSIONBRIDGE_SUSPENSIONBRIDGE_TOWER_LEG_NORTH_CROSSBEAM_1_START
  *Nset, nset=ASSEMBLYSUSPENSIONBRIDGE_SUSPENSIONBRIDGE_TOWER_LEG_NORTH_CROSSBEAM_2_END
  *Nset, nset=ASSEMBLYSUSPENSIONBRIDGE_SUSPENSIONBRIDGE_TOWER_LEG_NORTH_CROSSBEAM_2_START
  *Nset, nset=ASSEMBLYSUSPENSIONBRIDGE_SUSPENSIONBRIDGE_TOWER_LEG_NORTH_CROSSBEAM_3_END
  *Nset, nset=ASSEMBLYSUSPENSIONBRIDGE_SUSPENSIONBRIDGE_TOWER_LEG_NORTH_CROSSBEAM_3_START
  *Nset, nset=ASSEMBLYSUSPENSIONBRIDGE_SUSPENSIONBRIDGE_TOWER_LEG_NORTH_CROSSBEAM_4_END
  *Nset, nset=ASSEMBLYSUSPENSIONBRIDGE_SUSPENSIONBRIDGE_TOWER_LEG_NORTH_CROSSBEAM_4_START
  *Nset, nset=ASSEMBLYSUSPENSIONBRIDGE_SUSPENSIONBRIDGE_TOWER_LEG_NORTH_CROSSBEAM_5_END
  *Nset, nset=ASSEMBLYSUSPENSIONBRIDGE_SUSPENSIONBRIDGE_TOWER_LEG_NORTH_CROSSBEAM_5_START
  *Nset, nset=ASSEMBLYSUSPENSIONBRIDGE_SUSPENSIONBRIDGE_TOWER_LEG_NORTH_EAST
  *Nset, nset=ASSEMBLYSUSPENSIONBRIDGE_SUSPENSIONBRIDGE_TOWER_LEG_NORTH_WEST
  *Nset, nset=ASSEMBLYSUSPENSIONBRIDGE_SUSPENSIONBRIDGE_TOWER_LEG_SOUTH_CROSSBEAM_1_END
  *Nset, nset=ASSEMBLYSUSPENSIONBRIDGE_SUSPENSIONBRIDGE_TOWER_LEG_SOUTH_CROSSBEAM_1_START
  *Nset, nset=ASSEMBLYSUSPENSIONBRIDGE_SUSPENSIONBRIDGE_TOWER_LEG_SOUTH_CROSSBEAM_2_END
  *Nset, nset=ASSEMBLYSUSPENSIONBRIDGE_SUSPENSIONBRIDGE_TOWER_LEG_SOUTH_CROSSBEAM_2_START
  *Nset, nset=ASSEMBLYSUSPENSIONBRIDGE_SUSPENSIONBRIDGE_TOWER_LEG_SOUTH_CROSSBEAM_3_END
  *Nset, nset=ASSEMBLYSUSPENSIONBRIDGE_SUSPENSIONBRIDGE_TOWER_LEG_SOUTH_CROSSBEAM_3_START
  *Nset, nset=ASSEMBLYSUSPENSIONBRIDGE_SUSPENSIONBRIDGE_TOWER_LEG_SOUTH_CROSSBEAM_4_END
  *Nset, nset=ASSEMBLYSUSPENSIONBRIDGE_SUSPENSIONBRIDGE_TOWER_LEG_SOUTH_CROSSBEAM_4_START
  *Nset, nset=ASSEMBLYSUSPENSIONBRIDGE_SUSPENSIONBRIDGE_TOWER_LEG_SOUTH_CROSSBEAM_5_END
  *Nset, nset=ASSEMBLYSUSPENSIONBRIDGE_SUSPENSIONBRIDGE_TOWER_LEG_SOUTH_CROSSBEAM_5_START
  *Nset, nset=ASSEMBLYSUSPENSIONBRIDGE_SUSPENSIONBRIDGE_TOWER_LEG_SOUTH_EAST
  *Nset, nset=ASSEMBLYSUSPENSIONBRIDGE_SUSPENSIONBRIDGE_TOWER_LEG_SOUTH_WEST
  *Nset, nset=ASSEMBLYSUSPENSIONBRIDGE_SUSPENSIONBRIDGE_TOWER_TOP_NORTH_EAST
  *Nset, nset=ASSEMBLYSUSPENSIONBRIDGE_SUSPENSIONBRIDGE_TOWER_TOP_NORTH_WEST
  *Nset, nset=ASSEMBLYSUSPENSIONBRIDGE_SUSPENSIONBRIDGE_TOWER_TOP_SOUTH_EAST
  *Nset, nset=ASSEMBLYSUSPENSIONBRIDGE_SUSPENSIONBRIDGE_TOWER_TOP_SOUTH_WEST
  *Elset, elset=ASSEMBLYSUSPENSIONBRIDGE_SUSPENSIONBRIDGE_BEARING
  *Elset, elset=ASSEMBLYSUSPENSIONBRIDGE_SUSPENSIONBRIDGE_BEARINGLOW
  *Elset, elset=ASSEMBLYSUSPENSIONBRIDGE_SUSPENSIONBRIDGE_BEARINGLOW1_NORTH
  *Elset, elset=ASSEMBLYSUSPENSIONBRIDGE_SUSPENSIONBRIDGE_BEARINGLOW1_SOUTH
  *Elset, elset=ASSEMBLYSUSPENSIONBRIDGE_SUSPENSIONBRIDGE_BEARINGLOW2_NORTH
  *Elset, elset=ASSEMBLYSUSPENSIONBRIDGE_SUSPENSIONBRIDGE_BEARINGLOW2_SOUTH
  *Elset, elset=ASSEMBLYSUSPENSIONBRIDGE_SUSPENSIONBRIDGE_BEARINGPENDULUM
  *Elset, elset=ASSEMBLYSUSPENSIONBRIDGE_SUSPENSIONBRIDGE_BEARINGPENDULUM1_NORTH
  *Elset, elset=ASSEMBLYSUSPENSIONBRIDGE_SUSPENSIONBRIDGE_BEARINGPENDULUM1_SOUTH
  *Elset, elset=ASSEMBLYSUSPENSIONBRIDGE_SUSPENSIONBRIDGE_BEARINGPENDULUM2_NORTH
  *Elset, elset=ASSEMBLYSUSPENSIONBRIDGE_SUSPENSIONBRIDGE_BEARINGPENDULUM2_SOUTH
  *Elset, elset=ASSEMBLYSUSPENSIONBRIDGE_SUSPENSIONBRIDGE_BEARINGSPRING
  *Elset, elset=ASSEMBLYSUSPENSIONBRIDGE_SUSPENSIONBRIDGE_BEARINGSPRING1_NORTH
  *Elset, elset=ASSEMBLYSUSPENSIONBRIDGE_SUSPENSIONBRIDGE_BEARINGSPRING1_NORTH_RX
  *Elset, elset=ASSEMBLYSUSPENSIONBRIDGE_SUSPENSIONBRIDGE_BEARINGSPRING1_NORTH_RY
  *Elset, elset=ASSEMBLYSUSPENSIONBRIDGE_SUSPENSIONBRIDGE_BEARINGSPRING1_NORTH_RZ
  *Elset, elset=ASSEMBLYSUSPENSIONBRIDGE_SUSPENSIONBRIDGE_BEARINGSPRING1_NORTH_X
  *Elset, elset=ASSEMBLYSUSPENSIONBRIDGE_SUSPENSIONBRIDGE_BEARINGSPRING1_NORTH_Y
  *Elset, elset=ASSEMBLYSUSPENSIONBRIDGE_SUSPENSIONBRIDGE_BEARINGSPRING1_NORTH_Z
  *Elset, elset=ASSEMBLYSUSPENSIONBRIDGE_SUSPENSIONBRIDGE_BEARINGSPRING1_SOUTH
  *Elset, elset=ASSEMBLYSUSPENSIONBRIDGE_SUSPENSIONBRIDGE_BEARINGSPRING1_SOUTH_RX
  *Elset, elset=ASSEMBLYSUSPENSIONBRIDGE_SUSPENSIONBRIDGE_BEARINGSPRING1_SOUTH_RY
  *Elset, elset=ASSEMBLYSUSPENSIONBRIDGE_SUSPENSIONBRIDGE_BEARINGSPRING1_SOUTH_RZ
  *Elset, elset=ASSEMBLYSUSPENSIONBRIDGE_SUSPENSIONBRIDGE_BEARINGSPRING1_SOUTH_X
  *Elset, elset=ASSEMBLYSUSPENSIONBRIDGE_SUSPENSIONBRIDGE_BEARINGSPRING1_SOUTH_Y
  *Elset, elset=ASSEMBLYSUSPENSIONBRIDGE_SUSPENSIONBRIDGE_BEARINGSPRING1_SOUTH_Z
  *Elset, elset=ASSEMBLYSUSPENSIONBRIDGE_SUSPENSIONBRIDGE_BEARINGSPRING2_NORTH
  *Elset, elset=ASSEMBLYSUSPENSIONBRIDGE_SUSPENSIONBRIDGE_BEARINGSPRING2_NORTH_RX
  *Elset, elset=ASSEMBLYSUSPENSIONBRIDGE_SUSPENSIONBRIDGE_BEARINGSPRING2_NORTH_RY
  *Elset, elset=ASSEMBLYSUSPENSIONBRIDGE_SUSPENSIONBRIDGE_BEARINGSPRING2_NORTH_RZ
  *Elset, elset=ASSEMBLYSUSPENSIONBRIDGE_SUSPENSIONBRIDGE_BEARINGSPRING2_NORTH_X
  *Elset, elset=ASSEMBLYSUSPENSIONBRIDGE_SUSPENSIONBRIDGE_BEARINGSPRING2_NORTH_Y
  *Elset, elset=ASSEMBLYSUSPENSIONBRIDGE_SUSPENSIONBRIDGE_BEARINGSPRING2_NORTH_Z
  *Elset, elset=ASSEMBLYSUSPENSIONBRIDGE_SUSPENSIONBRIDGE_BEARINGSPRING2_SOUTH
  *Elset, elset=ASSEMBLYSUSPENSIONBRIDGE_SUSPENSIONBRIDGE_BEARINGSPRING2_SOUTH_RX
  *Elset, elset=ASSEMBLYSUSPENSIONBRIDGE_SUSPENSIONBRIDGE_BEARINGSPRING2_SOUTH_RY
  *Elset, elset=ASSEMBLYSUSPENSIONBRIDGE_SUSPENSIONBRIDGE_BEARINGSPRING2_SOUTH_RZ
  *Elset, elset=ASSEMBLYSUSPENSIONBRIDGE_SUSPENSIONBRIDGE_BEARINGSPRING2_SOUTH_X
  *Elset, elset=ASSEMBLYSUSPENSIONBRIDGE_SUSPENSIONBRIDGE_BEARINGSPRING2_SOUTH_Y
  *Elset, elset=ASSEMBLYSUSPENSIONBRIDGE_SUSPENSIONBRIDGE_BEARINGSPRING2_SOUTH_Z
  *Elset, elset=ASSEMBLYSUSPENSIONBRIDGE_SUSPENSIONBRIDGE_BEARINGTOP
  *Elset, elset=ASSEMBLYSUSPENSIONBRIDGE_SUSPENSIONBRIDGE_BEARINGTOP1_NORTH
  *Elset, elset=ASSEMBLYSUSPENSIONBRIDGE_SUSPENSIONBRIDGE_BEARINGTOP1_SOUTH
  *Elset, elset=ASSEMBLYSUSPENSIONBRIDGE_SUSPENSIONBRIDGE_BEARINGTOP2_NORTH
  *Elset, elset=ASSEMBLYSUSPENSIONBRIDGE_SUSPENSIONBRIDGE_BEARINGTOP2_SOUTH
  *Elset, elset=ASSEMBLYSUSPENSIONBRIDGE_SUSPENSIONBRIDGE_BRIDGEDECK
  *Elset, elset=ASSEMBLYSUSPENSIONBRIDGE_SUSPENSIONBRIDGE_BRIDGEDECK1_COG
  *Elset, elset=ASSEMBLYSUSPENSIONBRIDGE_SUSPENSIONBRIDGE_BRIDGEDECK2_COG
  *Elset, elset=ASSEMBLYSUSPENSIONBRIDGE_SUSPENSIONBRIDGE_BRIDGEDECK_COG
  *Elset, elset=ASSEMBLYSUSPENSIONBRIDGE_SUSPENSIONBRIDGE_BRIDGEDECK_SHELL
  *Elset, elset=ASSEMBLYSUSPENSIONBRIDGE_SUSPENSIONBRIDGE_BRIDGEDECK_SHELL_EAST1
  *Elset, elset=ASSEMBLYSUSPENSIONBRIDGE_SUSPENSIONBRIDGE_BRIDGEDECK_SHELL_EAST2
  *Elset, elset=ASSEMBLYSUSPENSIONBRIDGE_SUSPENSIONBRIDGE_BRIDGEDECK_SHELL_WEST1
  *Elset, elset=ASSEMBLYSUSPENSIONBRIDGE_SUSPENSIONBRIDGE_BRIDGEDECK_SHELL_WEST2
  *Elset, elset=ASSEMBLYSUSPENSIONBRIDGE_SUSPENSIONBRIDGE_CABLE_MAIN
  *Elset, elset=ASSEMBLYSUSPENSIONBRIDGE_SUSPENSIONBRIDGE_CABLE_MAIN_EAST
  *Elset, elset=ASSEMBLYSUSPENSIONBRIDGE_SUSPENSIONBRIDGE_CABLE_MAIN_SPAN
  *Elset, elset=ASSEMBLYSUSPENSIONBRIDGE_SUSPENSIONBRIDGE_CABLE_MAIN_WEST
  *Elset, elset=ASSEMBLYSUSPENSIONBRIDGE_SUSPENSIONBRIDGE_CABLE_TEMPSUPPORT
  *Elset, elset=ASSEMBLYSUSPENSIONBRIDGE_SUSPENSIONBRIDGE_HANGER
  *Elset, elset=ASSEMBLYSUSPENSIONBRIDGE_SUSPENSIONBRIDGE_HANGER_EAST
  *Elset, elset=ASSEMBLYSUSPENSIONBRIDGE_SUSPENSIONBRIDGE_HANGER_WEST
  *Elset, elset=ASSEMBLYSUSPENSIONBRIDGE_SUSPENSIONBRIDGE_LATCONNGAP
  *Elset, elset=ASSEMBLYSUSPENSIONBRIDGE_SUSPENSIONBRIDGE_LATCONNGAPEAST
  *Elset, elset=ASSEMBLYSUSPENSIONBRIDGE_SUSPENSIONBRIDGE_LATCONNGAPWEST
  *Elset, elset=ASSEMBLYSUSPENSIONBRIDGE_SUSPENSIONBRIDGE_LATCONNINNER
  *Elset, elset=ASSEMBLYSUSPENSIONBRIDGE_SUSPENSIONBRIDGE_LATCONNINNEREAST
  *Elset, elset=ASSEMBLYSUSPENSIONBRIDGE_SUSPENSIONBRIDGE_LATCONNINNERWEST
  *Elset, elset=ASSEMBLYSUSPENSIONBRIDGE_SUSPENSIONBRIDGE_LATCONNOUTER
  *Elset, elset=ASSEMBLYSUSPENSIONBRIDGE_SUSPENSIONBRIDGE_LATCONNOUTEREAST
  *Elset, elset=ASSEMBLYSUSPENSIONBRIDGE_SUSPENSIONBRIDGE_LATCONNOUTERWEST
  *Elset, elset=ASSEMBLYSUSPENSIONBRIDGE_SUSPENSIONBRIDGE_SADLESPRING
  *Elset, elset=ASSEMBLYSUSPENSIONBRIDGE_SUSPENSIONBRIDGE_SADLESPRING_X
  *Elset, elset=ASSEMBLYSUSPENSIONBRIDGE_SUSPENSIONBRIDGE_SADLESPRING_Y
  *Elset, elset=ASSEMBLYSUSPENSIONBRIDGE_SUSPENSIONBRIDGE_SADLESPRING_Z
  *Elset, elset=ASSEMBLYSUSPENSIONBRIDGE_SUSPENSIONBRIDGE_TOWER
  *Elset, elset=ASSEMBLYSUSPENSIONBRIDGE_SUSPENSIONBRIDGE_TOWER_CROSSBEAM
  *Elset, elset=ASSEMBLYSUSPENSIONBRIDGE_SUSPENSIONBRIDGE_TOWER_CROSSBEAM_NORTH_1
  *Elset, elset=ASSEMBLYSUSPENSIONBRIDGE_SUSPENSIONBRIDGE_TOWER_CROSSBEAM_NORTH_2
  *Elset, elset=ASSEMBLYSUSPENSIONBRIDGE_SUSPENSIONBRIDGE_TOWER_CROSSBEAM_NORTH_3
  *Elset, elset=ASSEMBLYSUSPENSIONBRIDGE_SUSPENSIONBRIDGE_TOWER_CROSSBEAM_NORTH_4
  *Elset, elset=ASSEMBLYSUSPENSIONBRIDGE_SUSPENSIONBRIDGE_TOWER_CROSSBEAM_NORTH_5
  *Elset, elset=ASSEMBLYSUSPENSIONBRIDGE_SUSPENSIONBRIDGE_TOWER_CROSSBEAM_SOUTH_1
  *Elset, elset=ASSEMBLYSUSPENSIONBRIDGE_SUSPENSIONBRIDGE_TOWER_CROSSBEAM_SOUTH_2
  *Elset, elset=ASSEMBLYSUSPENSIONBRIDGE_SUSPENSIONBRIDGE_TOWER_CROSSBEAM_SOUTH_3
  *Elset, elset=ASSEMBLYSUSPENSIONBRIDGE_SUSPENSIONBRIDGE_TOWER_CROSSBEAM_SOUTH_4
  *Elset, elset=ASSEMBLYSUSPENSIONBRIDGE_SUSPENSIONBRIDGE_TOWER_CROSSBEAM_SOUTH_5
  *Elset, elset=ASSEMBLYSUSPENSIONBRIDGE_SUSPENSIONBRIDGE_TOWER_LEG
  *Elset, elset=ASSEMBLYSUSPENSIONBRIDGE_SUSPENSIONBRIDGE_TOWER_LEG_NORTH_EAST
  *Elset, elset=ASSEMBLYSUSPENSIONBRIDGE_SUSPENSIONBRIDGE_TOWER_LEG_NORTH_WEST
  *Elset, elset=ASSEMBLYSUSPENSIONBRIDGE_SUSPENSIONBRIDGE_TOWER_LEG_SOUTH_EAST
  *Elset, elset=ASSEMBLYSUSPENSIONBRIDGE_SUSPENSIONBRIDGE_TOWER_LEG_SOUTH_WEST
  *Elset, elset=ASSEMBLYSUSPENSIONBRIDGE_SUSPENSIONBRIDGE_TOWER_NORTH_CS_001
  *Elset, elset=ASSEMBLYSUSPENSIONBRIDGE_SUSPENSIONBRIDGE_TOWER_NORTH_CS_002
  *Elset, elset=ASSEMBLYSUSPENSIONBRIDGE_SUSPENSIONBRIDGE_TOWER_NORTH_CS_003
  *Elset, elset=ASSEMBLYSUSPENSIONBRIDGE_SUSPENSIONBRIDGE_TOWER_NORTH_CS_004
  *Elset, elset=ASSEMBLYSUSPENSIONBRIDGE_SUSPENSIONBRIDGE_TOWER_NORTH_CS_005
  *Elset, elset=ASSEMBLYSUSPENSIONBRIDGE_SUSPENSIONBRIDGE_TOWER_NORTH_CS_006
  *Elset, elset=ASSEMBLYSUSPENSIONBRIDGE_SUSPENSIONBRIDGE_TOWER_NORTH_CS_007
  *Elset, elset=ASSEMBLYSUSPENSIONBRIDGE_SUSPENSIONBRIDGE_TOWER_NORTH_CS_008
  *Elset, elset=ASSEMBLYSUSPENSIONBRIDGE_SUSPENSIONBRIDGE_TOWER_NORTH_CS_009
  *Elset, elset=ASSEMBLYSUSPENSIONBRIDGE_SUSPENSIONBRIDGE_TOWER_NORTH_CS_010
  *Elset, elset=ASSEMBLYSUSPENSIONBRIDGE_SUSPENSIONBRIDGE_TOWER_NORTH_CS_011
  *Elset, elset=ASSEMBLYSUSPENSIONBRIDGE_SUSPENSIONBRIDGE_TOWER_NORTH_CS_012
  *Elset, elset=ASSEMBLYSUSPENSIONBRIDGE_SUSPENSIONBRIDGE_TOWER_NORTH_CS_013
  *Elset, elset=ASSEMBLYSUSPENSIONBRIDGE_SUSPENSIONBRIDGE_TOWER_NORTH_CS_014
  *Elset, elset=ASSEMBLYSUSPENSIONBRIDGE_SUSPENSIONBRIDGE_TOWER_NORTH_CS_015
  *Elset, elset=ASSEMBLYSUSPENSIONBRIDGE_SUSPENSIONBRIDGE_TOWER_NORTH_CS_016
  *Elset, elset=ASSEMBLYSUSPENSIONBRIDGE_SUSPENSIONBRIDGE_TOWER_NORTH_CS_017
  *Elset, elset=ASSEMBLYSUSPENSIONBRIDGE_SUSPENSIONBRIDGE_TOWER_NORTH_CS_018
  *Elset, elset=ASSEMBLYSUSPENSIONBRIDGE_SUSPENSIONBRIDGE_TOWER_NORTH_CS_019
  *Elset, elset=ASSEMBLYSUSPENSIONBRIDGE_SUSPENSIONBRIDGE_TOWER_NORTH_CS_020
  *Elset, elset=ASSEMBLYSUSPENSIONBRIDGE_SUSPENSIONBRIDGE_TOWER_NORTH_CS_021
  *Elset, elset=ASSEMBLYSUSPENSIONBRIDGE_SUSPENSIONBRIDGE_TOWER_NORTH_CS_022
  *Elset, elset=ASSEMBLYSUSPENSIONBRIDGE_SUSPENSIONBRIDGE_TOWER_NORTH_CS_023
  *Elset, elset=ASSEMBLYSUSPENSIONBRIDGE_SUSPENSIONBRIDGE_TOWER_NORTH_CS_024
  *Elset, elset=ASSEMBLYSUSPENSIONBRIDGE_SUSPENSIONBRIDGE_TOWER_NORTH_CS_025
  *Elset, elset=ASSEMBLYSUSPENSIONBRIDGE_SUSPENSIONBRIDGE_TOWER_NORTH_CS_026
  *Elset, elset=ASSEMBLYSUSPENSIONBRIDGE_SUSPENSIONBRIDGE_TOWER_NORTH_CS_027
  *Elset, elset=ASSEMBLYSUSPENSIONBRIDGE_SUSPENSIONBRIDGE_TOWER_NORTH_CS_028
  *Elset, elset=ASSEMBLYSUSPENSIONBRIDGE_SUSPENSIONBRIDGE_TOWER_NORTH_CS_029
  *Elset, elset=ASSEMBLYSUSPENSIONBRIDGE_SUSPENSIONBRIDGE_TOWER_NORTH_CS_030
  *Elset, elset=ASSEMBLYSUSPENSIONBRIDGE_SUSPENSIONBRIDGE_TOWER_NORTH_CS_031
  *Elset, elset=ASSEMBLYSUSPENSIONBRIDGE_SUSPENSIONBRIDGE_TOWER_NORTH_CS_032
  *Elset, elset=ASSEMBLYSUSPENSIONBRIDGE_SUSPENSIONBRIDGE_TOWER_NORTH_CS_033
  *Elset, elset=ASSEMBLYSUSPENSIONBRIDGE_SUSPENSIONBRIDGE_TOWER_NORTH_CS_034
  *Elset, elset=ASSEMBLYSUSPENSIONBRIDGE_SUSPENSIONBRIDGE_TOWER_NORTH_CS_035
  *Elset, elset=ASSEMBLYSUSPENSIONBRIDGE_SUSPENSIONBRIDGE_TOWER_NORTH_CS_036
  *Elset, elset=ASSEMBLYSUSPENSIONBRIDGE_SUSPENSIONBRIDGE_TOWER_NORTH_CS_037
  *Elset, elset=ASSEMBLYSUSPENSIONBRIDGE_SUSPENSIONBRIDGE_TOWER_NORTH_CS_038
  *Elset, elset=ASSEMBLYSUSPENSIONBRIDGE_SUSPENSIONBRIDGE_TOWER_NORTH_CS_039
  *Elset, elset=ASSEMBLYSUSPENSIONBRIDGE_SUSPENSIONBRIDGE_TOWER_NORTH_CS_040
  *Elset, elset=ASSEMBLYSUSPENSIONBRIDGE_SUSPENSIONBRIDGE_TOWER_NORTH_CS_041
  *Elset, elset=ASSEMBLYSUSPENSIONBRIDGE_SUSPENSIONBRIDGE_TOWER_NORTH_CS_042
  *Elset, elset=ASSEMBLYSUSPENSIONBRIDGE_SUSPENSIONBRIDGE_TOWER_NORTH_CS_043
  *Elset, elset=ASSEMBLYSUSPENSIONBRIDGE_SUSPENSIONBRIDGE_TOWER_NORTH_CS_044
  *Elset, elset=ASSEMBLYSUSPENSIONBRIDGE_SUSPENSIONBRIDGE_TOWER_NORTH_CS_045
  *Elset, elset=ASSEMBLYSUSPENSIONBRIDGE_SUSPENSIONBRIDGE_TOWER_NORTH_CS_046
  *Elset, elset=ASSEMBLYSUSPENSIONBRIDGE_SUSPENSIONBRIDGE_TOWER_NORTH_CS_047
  *Elset, elset=ASSEMBLYSUSPENSIONBRIDGE_SUSPENSIONBRIDGE_TOWER_NORTH_CS_048
  *Elset, elset=ASSEMBLYSUSPENSIONBRIDGE_SUSPENSIONBRIDGE_TOWER_NORTH_CS_049
  *Elset, elset=ASSEMBLYSUSPENSIONBRIDGE_SUSPENSIONBRIDGE_TOWER_NORTH_CS_050
  *Elset, elset=ASSEMBLYSUSPENSIONBRIDGE_SUSPENSIONBRIDGE_TOWER_NORTH_CS_051
  *Elset, elset=ASSEMBLYSUSPENSIONBRIDGE_SUSPENSIONBRIDGE_TOWER_NORTH_CS_052
  *Elset, elset=ASSEMBLYSUSPENSIONBRIDGE_SUSPENSIONBRIDGE_TOWER_NORTH_CS_053
  *Elset, elset=ASSEMBLYSUSPENSIONBRIDGE_SUSPENSIONBRIDGE_TOWER_NORTH_CS_054
  *Elset, elset=ASSEMBLYSUSPENSIONBRIDGE_SUSPENSIONBRIDGE_TOWER_NORTH_CS_055
  *Elset, elset=ASSEMBLYSUSPENSIONBRIDGE_SUSPENSIONBRIDGE_TOWER_NORTH_CS_056
  *Elset, elset=ASSEMBLYSUSPENSIONBRIDGE_SUSPENSIONBRIDGE_TOWER_NORTH_CS_057
  *Elset, elset=ASSEMBLYSUSPENSIONBRIDGE_SUSPENSIONBRIDGE_TOWER_NORTH_CS_058
  *Elset, elset=ASSEMBLYSUSPENSIONBRIDGE_SUSPENSIONBRIDGE_TOWER_NORTH_CS_059
  *Elset, elset=ASSEMBLYSUSPENSIONBRIDGE_SUSPENSIONBRIDGE_TOWER_NORTH_CS_060
  *Elset, elset=ASSEMBLYSUSPENSIONBRIDGE_SUSPENSIONBRIDGE_TOWER_NORTH_CS_061
  *Elset, elset=ASSEMBLYSUSPENSIONBRIDGE_SUSPENSIONBRIDGE_TOWER_NORTH_CS_062
  *Elset, elset=ASSEMBLYSUSPENSIONBRIDGE_SUSPENSIONBRIDGE_TOWER_NORTH_CS_063
  *Elset, elset=ASSEMBLYSUSPENSIONBRIDGE_SUSPENSIONBRIDGE_TOWER_NORTH_CS_064
  *Elset, elset=ASSEMBLYSUSPENSIONBRIDGE_SUSPENSIONBRIDGE_TOWER_NORTH_CS_065
  *Elset, elset=ASSEMBLYSUSPENSIONBRIDGE_SUSPENSIONBRIDGE_TOWER_NORTH_CS_066
  *Elset, elset=ASSEMBLYSUSPENSIONBRIDGE_SUSPENSIONBRIDGE_TOWER_NORTH_CS_067
  *Elset, elset=ASSEMBLYSUSPENSIONBRIDGE_SUSPENSIONBRIDGE_TOWER_NORTH_CS_068
  *Elset, elset=ASSEMBLYSUSPENSIONBRIDGE_SUSPENSIONBRIDGE_TOWER_NORTH_CS_069
  *Elset, elset=ASSEMBLYSUSPENSIONBRIDGE_SUSPENSIONBRIDGE_TOWER_NORTH_CS_070
  *Elset, elset=ASSEMBLYSUSPENSIONBRIDGE_SUSPENSIONBRIDGE_TOWER_NORTH_CS_071
  *Elset, elset=ASSEMBLYSUSPENSIONBRIDGE_SUSPENSIONBRIDGE_TOWER_NORTH_CS_072
  *Elset, elset=ASSEMBLYSUSPENSIONBRIDGE_SUSPENSIONBRIDGE_TOWER_NORTH_CS_073
  *Elset, elset=ASSEMBLYSUSPENSIONBRIDGE_SUSPENSIONBRIDGE_TOWER_NORTH_CS_074
  *Elset, elset=ASSEMBLYSUSPENSIONBRIDGE_SUSPENSIONBRIDGE_TOWER_SOUTH_CS_001
  *Elset, elset=ASSEMBLYSUSPENSIONBRIDGE_SUSPENSIONBRIDGE_TOWER_SOUTH_CS_002
  *Elset, elset=ASSEMBLYSUSPENSIONBRIDGE_SUSPENSIONBRIDGE_TOWER_SOUTH_CS_003
  *Elset, elset=ASSEMBLYSUSPENSIONBRIDGE_SUSPENSIONBRIDGE_TOWER_SOUTH_CS_004
  *Elset, elset=ASSEMBLYSUSPENSIONBRIDGE_SUSPENSIONBRIDGE_TOWER_SOUTH_CS_005
  *Elset, elset=ASSEMBLYSUSPENSIONBRIDGE_SUSPENSIONBRIDGE_TOWER_SOUTH_CS_006
  *Elset, elset=ASSEMBLYSUSPENSIONBRIDGE_SUSPENSIONBRIDGE_TOWER_SOUTH_CS_007
  *Elset, elset=ASSEMBLYSUSPENSIONBRIDGE_SUSPENSIONBRIDGE_TOWER_SOUTH_CS_008
  *Elset, elset=ASSEMBLYSUSPENSIONBRIDGE_SUSPENSIONBRIDGE_TOWER_SOUTH_CS_009
  *Elset, elset=ASSEMBLYSUSPENSIONBRIDGE_SUSPENSIONBRIDGE_TOWER_SOUTH_CS_010
  *Elset, elset=ASSEMBLYSUSPENSIONBRIDGE_SUSPENSIONBRIDGE_TOWER_SOUTH_CS_011
  *Elset, elset=ASSEMBLYSUSPENSIONBRIDGE_SUSPENSIONBRIDGE_TOWER_SOUTH_CS_012
  *Elset, elset=ASSEMBLYSUSPENSIONBRIDGE_SUSPENSIONBRIDGE_TOWER_SOUTH_CS_013
  *Elset, elset=ASSEMBLYSUSPENSIONBRIDGE_SUSPENSIONBRIDGE_TOWER_SOUTH_CS_014
  *Elset, elset=ASSEMBLYSUSPENSIONBRIDGE_SUSPENSIONBRIDGE_TOWER_SOUTH_CS_015
  *Elset, elset=ASSEMBLYSUSPENSIONBRIDGE_SUSPENSIONBRIDGE_TOWER_SOUTH_CS_016
  *Elset, elset=ASSEMBLYSUSPENSIONBRIDGE_SUSPENSIONBRIDGE_TOWER_SOUTH_CS_017
  *Elset, elset=ASSEMBLYSUSPENSIONBRIDGE_SUSPENSIONBRIDGE_TOWER_SOUTH_CS_018
  *Elset, elset=ASSEMBLYSUSPENSIONBRIDGE_SUSPENSIONBRIDGE_TOWER_SOUTH_CS_019
  *Elset, elset=ASSEMBLYSUSPENSIONBRIDGE_SUSPENSIONBRIDGE_TOWER_SOUTH_CS_020
  *Elset, elset=ASSEMBLYSUSPENSIONBRIDGE_SUSPENSIONBRIDGE_TOWER_SOUTH_CS_021
  *Elset, elset=ASSEMBLYSUSPENSIONBRIDGE_SUSPENSIONBRIDGE_TOWER_SOUTH_CS_022
  *Elset, elset=ASSEMBLYSUSPENSIONBRIDGE_SUSPENSIONBRIDGE_TOWER_SOUTH_CS_023
  *Elset, elset=ASSEMBLYSUSPENSIONBRIDGE_SUSPENSIONBRIDGE_TOWER_SOUTH_CS_024
  *Elset, elset=ASSEMBLYSUSPENSIONBRIDGE_SUSPENSIONBRIDGE_TOWER_SOUTH_CS_025
  *Elset, elset=ASSEMBLYSUSPENSIONBRIDGE_SUSPENSIONBRIDGE_TOWER_SOUTH_CS_026
  *Elset, elset=ASSEMBLYSUSPENSIONBRIDGE_SUSPENSIONBRIDGE_TOWER_SOUTH_CS_027
  *Elset, elset=ASSEMBLYSUSPENSIONBRIDGE_SUSPENSIONBRIDGE_TOWER_SOUTH_CS_028
  *Elset, elset=ASSEMBLYSUSPENSIONBRIDGE_SUSPENSIONBRIDGE_TOWER_SOUTH_CS_029
  *Elset, elset=ASSEMBLYSUSPENSIONBRIDGE_SUSPENSIONBRIDGE_TOWER_SOUTH_CS_030
  *Elset, elset=ASSEMBLYSUSPENSIONBRIDGE_SUSPENSIONBRIDGE_TOWER_SOUTH_CS_031
  *Elset, elset=ASSEMBLYSUSPENSIONBRIDGE_SUSPENSIONBRIDGE_TOWER_SOUTH_CS_032
  *Elset, elset=ASSEMBLYSUSPENSIONBRIDGE_SUSPENSIONBRIDGE_TOWER_SOUTH_CS_033
  *Elset, elset=ASSEMBLYSUSPENSIONBRIDGE_SUSPENSIONBRIDGE_TOWER_SOUTH_CS_034
  *Elset, elset=ASSEMBLYSUSPENSIONBRIDGE_SUSPENSIONBRIDGE_TOWER_SOUTH_CS_035
  *Elset, elset=ASSEMBLYSUSPENSIONBRIDGE_SUSPENSIONBRIDGE_TOWER_SOUTH_CS_036
  *Elset, elset=ASSEMBLYSUSPENSIONBRIDGE_SUSPENSIONBRIDGE_TOWER_SOUTH_CS_037
  *Elset, elset=ASSEMBLYSUSPENSIONBRIDGE_SUSPENSIONBRIDGE_TOWER_SOUTH_CS_038
  *Elset, elset=ASSEMBLYSUSPENSIONBRIDGE_SUSPENSIONBRIDGE_TOWER_SOUTH_CS_039
  *Elset, elset=ASSEMBLYSUSPENSIONBRIDGE_SUSPENSIONBRIDGE_TOWER_SOUTH_CS_040
  *Elset, elset=ASSEMBLYSUSPENSIONBRIDGE_SUSPENSIONBRIDGE_TOWER_SOUTH_CS_041
  *Elset, elset=ASSEMBLYSUSPENSIONBRIDGE_SUSPENSIONBRIDGE_TOWER_SOUTH_CS_042
  *Elset, elset=ASSEMBLYSUSPENSIONBRIDGE_SUSPENSIONBRIDGE_TOWER_SOUTH_CS_043
  *Elset, elset=ASSEMBLYSUSPENSIONBRIDGE_SUSPENSIONBRIDGE_TOWER_SOUTH_CS_044
  *Elset, elset=ASSEMBLYSUSPENSIONBRIDGE_SUSPENSIONBRIDGE_TOWER_SOUTH_CS_045
  *Elset, elset=ASSEMBLYSUSPENSIONBRIDGE_SUSPENSIONBRIDGE_TOWER_SOUTH_CS_046
  *Elset, elset=ASSEMBLYSUSPENSIONBRIDGE_SUSPENSIONBRIDGE_TOWER_SOUTH_CS_047
  *Elset, elset=ASSEMBLYSUSPENSIONBRIDGE_SUSPENSIONBRIDGE_TOWER_SOUTH_CS_048
  *Elset, elset=ASSEMBLYSUSPENSIONBRIDGE_SUSPENSIONBRIDGE_TOWER_SOUTH_CS_049
  *Elset, elset=ASSEMBLYSUSPENSIONBRIDGE_SUSPENSIONBRIDGE_TOWER_SOUTH_CS_050
  *Elset, elset=ASSEMBLYSUSPENSIONBRIDGE_SUSPENSIONBRIDGE_TOWER_SOUTH_CS_051
  *Elset, elset=ASSEMBLYSUSPENSIONBRIDGE_SUSPENSIONBRIDGE_TOWER_SOUTH_CS_052
  *Elset, elset=ASSEMBLYSUSPENSIONBRIDGE_SUSPENSIONBRIDGE_TOWER_SOUTH_CS_053
  *Elset, elset=ASSEMBLYSUSPENSIONBRIDGE_SUSPENSIONBRIDGE_TOWER_SOUTH_CS_054
  *Elset, elset=ASSEMBLYSUSPENSIONBRIDGE_SUSPENSIONBRIDGE_TOWER_SOUTH_CS_055
  *Elset, elset=ASSEMBLYSUSPENSIONBRIDGE_SUSPENSIONBRIDGE_TOWER_SOUTH_CS_056
  *Elset, elset=ASSEMBLYSUSPENSIONBRIDGE_SUSPENSIONBRIDGE_TOWER_SOUTH_CS_057
  *Elset, elset=ASSEMBLYSUSPENSIONBRIDGE_SUSPENSIONBRIDGE_TOWER_SOUTH_CS_058
  *Elset, elset=ASSEMBLYSUSPENSIONBRIDGE_SUSPENSIONBRIDGE_TOWER_SOUTH_CS_059
  *Elset, elset=ASSEMBLYSUSPENSIONBRIDGE_SUSPENSIONBRIDGE_TOWER_SOUTH_CS_060
  *Elset, elset=ASSEMBLYSUSPENSIONBRIDGE_SUSPENSIONBRIDGE_TOWER_SOUTH_CS_061
  *Elset, elset=ASSEMBLYSUSPENSIONBRIDGE_SUSPENSIONBRIDGE_TOWER_SOUTH_CS_062
  *Elset, elset=ASSEMBLYSUSPENSIONBRIDGE_SUSPENSIONBRIDGE_TOWER_SOUTH_CS_063
  *Elset, elset=ASSEMBLYSUSPENSIONBRIDGE_SUSPENSIONBRIDGE_TOWER_SOUTH_CS_064
  *Elset, elset=ASSEMBLYSUSPENSIONBRIDGE_SUSPENSIONBRIDGE_TOWER_SOUTH_CS_065
  *Elset, elset=ASSEMBLYSUSPENSIONBRIDGE_SUSPENSIONBRIDGE_TOWER_SOUTH_CS_066
  *Elset, elset=ASSEMBLYSUSPENSIONBRIDGE_SUSPENSIONBRIDGE_TOWER_SOUTH_CS_067
  *Elset, elset=ASSEMBLYSUSPENSIONBRIDGE_SUSPENSIONBRIDGE_TOWER_SOUTH_CS_068
  *Elset, elset=ASSEMBLYSUSPENSIONBRIDGE_SUSPENSIONBRIDGE_TOWER_SOUTH_CS_069
  *Elset, elset=ASSEMBLYSUSPENSIONBRIDGE_SUSPENSIONBRIDGE_TOWER_SOUTH_CS_070
  *Elset, elset=ASSEMBLYSUSPENSIONBRIDGE_SUSPENSIONBRIDGE_TOWER_SOUTH_CS_071
  *Elset, elset=ASSEMBLYSUSPENSIONBRIDGE_SUSPENSIONBRIDGE_TOWER_SOUTH_CS_072
  *Elset, elset=ASSEMBLYSUSPENSIONBRIDGE_SUSPENSIONBRIDGE_TOWER_SOUTH_CS_073
  *Elset, elset=ASSEMBLYSUSPENSIONBRIDGE_SUSPENSIONBRIDGE_TOWER_SOUTH_CS_074
  *material, name=CONCRETE
  *elastic
  *density
  *material, name=SOFT
  *elastic
  *density
  *material, name=STEEL
  *elastic
  *density
  *beamgeneralsection, elset=ASSEMBLYSUSPENSIONBRIDGE_SUSPENSIONBRIDGE_CABLE_MAIN, density=7850, section=GENERAL
  *beamgeneralsection, elset=ASSEMBLYSUSPENSIONBRIDGE_SUSPENSIONBRIDGE_CABLE_TEMPSUPPORT, density=0, section=GENERAL
  *beamgeneralsection, elset=ASSEMBLYSUSPENSIONBRIDGE_SUSPENSIONBRIDGE_LATCONNOUTER, density=0, section=GENERAL
  *beamgeneralsection, elset=ASSEMBLYSUSPENSIONBRIDGE_SUSPENSIONBRIDGE_BRIDGEDECK1_COG, density=0, section=GENERAL
  *beamgeneralsection, elset=ASSEMBLYSUSPENSIONBRIDGE_SUSPENSIONBRIDGE_BRIDGEDECK2_COG, density=0, section=GENERAL
  *beamgeneralsection, elset=ASSEMBLYSUSPENSIONBRIDGE_SUSPENSIONBRIDGE_LATCONNINNER, density=0, section=GENERAL
  *beamgeneralsection, elset=ASSEMBLYSUSPENSIONBRIDGE_SUSPENSIONBRIDGE_HANGER, density=7850, section=GENERAL
  *beamgeneralsection, elset=ASSEMBLYSUSPENSIONBRIDGE_SUSPENSIONBRIDGE_BEARINGTOP, density=0, section=GENERAL
  *beamgeneralsection, elset=ASSEMBLYSUSPENSIONBRIDGE_SUSPENSIONBRIDGE_BEARINGLOW, density=0, section=GENERAL
  *spring, elset=ASSEMBLYSUSPENSIONBRIDGE_SUSPENSIONBRIDGE_SADLESPRING_X
  *spring, elset=ASSEMBLYSUSPENSIONBRIDGE_SUSPENSIONBRIDGE_SADLESPRING_Y
  *spring, elset=ASSEMBLYSUSPENSIONBRIDGE_SUSPENSIONBRIDGE_SADLESPRING_Z
  *spring, elset=ASSEMBLYSUSPENSIONBRIDGE_SUSPENSIONBRIDGE_BEARINGSPRING1_SOUTH_X
  *spring, elset=ASSEMBLYSUSPENSIONBRIDGE_SUSPENSIONBRIDGE_BEARINGSPRING1_SOUTH_Y
  *spring, elset=ASSEMBLYSUSPENSIONBRIDGE_SUSPENSIONBRIDGE_BEARINGSPRING1_SOUTH_Z
  *spring, elset=ASSEMBLYSUSPENSIONBRIDGE_SUSPENSIONBRIDGE_BEARINGSPRING1_SOUTH_RX
  *spring, elset=ASSEMBLYSUSPENSIONBRIDGE_SUSPENSIONBRIDGE_BEARINGSPRING1_SOUTH_RY
  *spring, elset=ASSEMBLYSUSPENSIONBRIDGE_SUSPENSIONBRIDGE_BEARINGSPRING1_SOUTH_RZ
  *spring, elset=ASSEMBLYSUSPENSIONBRIDGE_SUSPENSIONBRIDGE_BEARINGSPRING1_NORTH_X
  *spring, elset=ASSEMBLYSUSPENSIONBRIDGE_SUSPENSIONBRIDGE_BEARINGSPRING1_NORTH_Y
  *spring, elset=ASSEMBLYSUSPENSIONBRIDGE_SUSPENSIONBRIDGE_BEARINGSPRING1_NORTH_Z
  *spring, elset=ASSEMBLYSUSPENSIONBRIDGE_SUSPENSIONBRIDGE_BEARINGSPRING1_NORTH_RX
  *spring, elset=ASSEMBLYSUSPENSIONBRIDGE_SUSPENSIONBRIDGE_BEARINGSPRING1_NORTH_RY
  *spring, elset=ASSEMBLYSUSPENSIONBRIDGE_SUSPENSIONBRIDGE_BEARINGSPRING1_NORTH_RZ
  *spring, elset=ASSEMBLYSUSPENSIONBRIDGE_SUSPENSIONBRIDGE_BEARINGSPRING2_SOUTH_X
  *spring, elset=ASSEMBLYSUSPENSIONBRIDGE_SUSPENSIONBRIDGE_BEARINGSPRING2_SOUTH_Y
  *spring, elset=ASSEMBLYSUSPENSIONBRIDGE_SUSPENSIONBRIDGE_BEARINGSPRING2_SOUTH_Z
  *spring, elset=ASSEMBLYSUSPENSIONBRIDGE_SUSPENSIONBRIDGE_BEARINGSPRING2_SOUTH_RX
  *spring, elset=ASSEMBLYSUSPENSIONBRIDGE_SUSPENSIONBRIDGE_BEARINGSPRING2_SOUTH_RY
  *spring, elset=ASSEMBLYSUSPENSIONBRIDGE_SUSPENSIONBRIDGE_BEARINGSPRING2_SOUTH_RZ
  *spring, elset=ASSEMBLYSUSPENSIONBRIDGE_SUSPENSIONBRIDGE_BEARINGSPRING2_NORTH_X
  *spring, elset=ASSEMBLYSUSPENSIONBRIDGE_SUSPENSIONBRIDGE_BEARINGSPRING2_NORTH_Y
  *spring, elset=ASSEMBLYSUSPENSIONBRIDGE_SUSPENSIONBRIDGE_BEARINGSPRING2_NORTH_Z
  *spring, elset=ASSEMBLYSUSPENSIONBRIDGE_SUSPENSIONBRIDGE_BEARINGSPRING2_NORTH_RX
  *spring, elset=ASSEMBLYSUSPENSIONBRIDGE_SUSPENSIONBRIDGE_BEARINGSPRING2_NORTH_RY
  *spring, elset=ASSEMBLYSUSPENSIONBRIDGE_SUSPENSIONBRIDGE_BEARINGSPRING2_NORTH_RZ
  *shellsection, elset=ASSEMBLYSUSPENSIONBRIDGE_SUSPENSIONBRIDGE_BRIDGEDECK_SHELL, material=SOFT, offset=SNEG
  *beamsection, elset=ASSEMBLYSUSPENSIONBRIDGE_SUSPENSIONBRIDGE_TOWER_SOUTH_CS_001, material=CONCRETE, section=BOX

 ***WARNING: ONE OR MORE THICKNESS OF THE BOX SECTION IS GREATER THAN 0.1 OF 
             THE CROSS SECTION DIMENSION. THE TORSIONAL RIGIDITY MAY NOT BE 
             EVALUATED ACCURATELY SINCE THE CALCULATION IS BASED ON THE 
             ASSUMPTION THAT THE WALL THICKNESS IS MUCH SMALL IN COMPARISON TO 
             THE CROSS SECTION DIMENSION
  *beamsection, elset=ASSEMBLYSUSPENSIONBRIDGE_SUSPENSIONBRIDGE_TOWER_NORTH_CS_001, material=CONCRETE, section=BOX

 ***WARNING: ONE OR MORE THICKNESS OF THE BOX SECTION IS GREATER THAN 0.1 OF 
             THE CROSS SECTION DIMENSION. THE TORSIONAL RIGIDITY MAY NOT BE 
             EVALUATED ACCURATELY SINCE THE CALCULATION IS BASED ON THE 
             ASSUMPTION THAT THE WALL THICKNESS IS MUCH SMALL IN COMPARISON TO 
             THE CROSS SECTION DIMENSION
  *beamsection, elset=ASSEMBLYSUSPENSIONBRIDGE_SUSPENSIONBRIDGE_TOWER_SOUTH_CS_002, material=CONCRETE, section=BOX

 ***WARNING: ONE OR MORE THICKNESS OF THE BOX SECTION IS GREATER THAN 0.1 OF 
             THE CROSS SECTION DIMENSION. THE TORSIONAL RIGIDITY MAY NOT BE 
             EVALUATED ACCURATELY SINCE THE CALCULATION IS BASED ON THE 
             ASSUMPTION THAT THE WALL THICKNESS IS MUCH SMALL IN COMPARISON TO 
             THE CROSS SECTION DIMENSION
  *beamsection, elset=ASSEMBLYSUSPENSIONBRIDGE_SUSPENSIONBRIDGE_TOWER_NORTH_CS_002, material=CONCRETE, section=BOX

 ***WARNING: ONE OR MORE THICKNESS OF THE BOX SECTION IS GREATER THAN 0.1 OF 
             THE CROSS SECTION DIMENSION. THE TORSIONAL RIGIDITY MAY NOT BE 
             EVALUATED ACCURATELY SINCE THE CALCULATION IS BASED ON THE 
             ASSUMPTION THAT THE WALL THICKNESS IS MUCH SMALL IN COMPARISON TO 
             THE CROSS SECTION DIMENSION
  *beamsection, elset=ASSEMBLYSUSPENSIONBRIDGE_SUSPENSIONBRIDGE_TOWER_SOUTH_CS_003, material=CONCRETE, section=BOX

 ***WARNING: ONE OR MORE THICKNESS OF THE BOX SECTION IS GREATER THAN 0.1 OF 
             THE CROSS SECTION DIMENSION. THE TORSIONAL RIGIDITY MAY NOT BE 
             EVALUATED ACCURATELY SINCE THE CALCULATION IS BASED ON THE 
             ASSUMPTION THAT THE WALL THICKNESS IS MUCH SMALL IN COMPARISON TO 
             THE CROSS SECTION DIMENSION
  *beamsection, elset=ASSEMBLYSUSPENSIONBRIDGE_SUSPENSIONBRIDGE_TOWER_NORTH_CS_003, material=CONCRETE, section=BOX

 ***WARNING: ONE OR MORE THICKNESS OF THE BOX SECTION IS GREATER THAN 0.1 OF 
             THE CROSS SECTION DIMENSION. THE TORSIONAL RIGIDITY MAY NOT BE 
             EVALUATED ACCURATELY SINCE THE CALCULATION IS BASED ON THE 
             ASSUMPTION THAT THE WALL THICKNESS IS MUCH SMALL IN COMPARISON TO 
             THE CROSS SECTION DIMENSION
  *beamsection, elset=ASSEMBLYSUSPENSIONBRIDGE_SUSPENSIONBRIDGE_TOWER_SOUTH_CS_004, material=CONCRETE, section=BOX

 ***WARNING: ONE OR MORE THICKNESS OF THE BOX SECTION IS GREATER THAN 0.1 OF 
             THE CROSS SECTION DIMENSION. THE TORSIONAL RIGIDITY MAY NOT BE 
             EVALUATED ACCURATELY SINCE THE CALCULATION IS BASED ON THE 
             ASSUMPTION THAT THE WALL THICKNESS IS MUCH SMALL IN COMPARISON TO 
             THE CROSS SECTION DIMENSION
  *beamsection, elset=ASSEMBLYSUSPENSIONBRIDGE_SUSPENSIONBRIDGE_TOWER_NORTH_CS_004, material=CONCRETE, section=BOX

 ***WARNING: ONE OR MORE THICKNESS OF THE BOX SECTION IS GREATER THAN 0.1 OF 
             THE CROSS SECTION DIMENSION. THE TORSIONAL RIGIDITY MAY NOT BE 
             EVALUATED ACCURATELY SINCE THE CALCULATION IS BASED ON THE 
             ASSUMPTION THAT THE WALL THICKNESS IS MUCH SMALL IN COMPARISON TO 
             THE CROSS SECTION DIMENSION
  *beamsection, elset=ASSEMBLYSUSPENSIONBRIDGE_SUSPENSIONBRIDGE_TOWER_SOUTH_CS_005, material=CONCRETE, section=BOX

 ***WARNING: ONE OR MORE THICKNESS OF THE BOX SECTION IS GREATER THAN 0.1 OF 
             THE CROSS SECTION DIMENSION. THE TORSIONAL RIGIDITY MAY NOT BE 
             EVALUATED ACCURATELY SINCE THE CALCULATION IS BASED ON THE 
             ASSUMPTION THAT THE WALL THICKNESS IS MUCH SMALL IN COMPARISON TO 
             THE CROSS SECTION DIMENSION
  *beamsection, elset=ASSEMBLYSUSPENSIONBRIDGE_SUSPENSIONBRIDGE_TOWER_NORTH_CS_005, material=CONCRETE, section=BOX

 ***WARNING: ONE OR MORE THICKNESS OF THE BOX SECTION IS GREATER THAN 0.1 OF 
             THE CROSS SECTION DIMENSION. THE TORSIONAL RIGIDITY MAY NOT BE 
             EVALUATED ACCURATELY SINCE THE CALCULATION IS BASED ON THE 
             ASSUMPTION THAT THE WALL THICKNESS IS MUCH SMALL IN COMPARISON TO 
             THE CROSS SECTION DIMENSION
  *beamsection, elset=ASSEMBLYSUSPENSIONBRIDGE_SUSPENSIONBRIDGE_TOWER_SOUTH_CS_006, material=CONCRETE, section=BOX

 ***WARNING: ONE OR MORE THICKNESS OF THE BOX SECTION IS GREATER THAN 0.1 OF 
             THE CROSS SECTION DIMENSION. THE TORSIONAL RIGIDITY MAY NOT BE 
             EVALUATED ACCURATELY SINCE THE CALCULATION IS BASED ON THE 
             ASSUMPTION THAT THE WALL THICKNESS IS MUCH SMALL IN COMPARISON TO 
             THE CROSS SECTION DIMENSION
  *beamsection, elset=ASSEMBLYSUSPENSIONBRIDGE_SUSPENSIONBRIDGE_TOWER_NORTH_CS_006, material=CONCRETE, section=BOX

 ***WARNING: ONE OR MORE THICKNESS OF THE BOX SECTION IS GREATER THAN 0.1 OF 
             THE CROSS SECTION DIMENSION. THE TORSIONAL RIGIDITY MAY NOT BE 
             EVALUATED ACCURATELY SINCE THE CALCULATION IS BASED ON THE 
             ASSUMPTION THAT THE WALL THICKNESS IS MUCH SMALL IN COMPARISON TO 
             THE CROSS SECTION DIMENSION
  *beamsection, elset=ASSEMBLYSUSPENSIONBRIDGE_SUSPENSIONBRIDGE_TOWER_SOUTH_CS_007, material=CONCRETE, section=BOX

 ***WARNING: ONE OR MORE THICKNESS OF THE BOX SECTION IS GREATER THAN 0.1 OF 
             THE CROSS SECTION DIMENSION. THE TORSIONAL RIGIDITY MAY NOT BE 
             EVALUATED ACCURATELY SINCE THE CALCULATION IS BASED ON THE 
             ASSUMPTION THAT THE WALL THICKNESS IS MUCH SMALL IN COMPARISON TO 
             THE CROSS SECTION DIMENSION
  *beamsection, elset=ASSEMBLYSUSPENSIONBRIDGE_SUSPENSIONBRIDGE_TOWER_NORTH_CS_007, material=CONCRETE, section=BOX

 ***WARNING: ONE OR MORE THICKNESS OF THE BOX SECTION IS GREATER THAN 0.1 OF 
             THE CROSS SECTION DIMENSION. THE TORSIONAL RIGIDITY MAY NOT BE 
             EVALUATED ACCURATELY SINCE THE CALCULATION IS BASED ON THE 
             ASSUMPTION THAT THE WALL THICKNESS IS MUCH SMALL IN COMPARISON TO 
             THE CROSS SECTION DIMENSION
  *beamsection, elset=ASSEMBLYSUSPENSIONBRIDGE_SUSPENSIONBRIDGE_TOWER_SOUTH_CS_008, material=CONCRETE, section=BOX

 ***WARNING: ONE OR MORE THICKNESS OF THE BOX SECTION IS GREATER THAN 0.1 OF 
             THE CROSS SECTION DIMENSION. THE TORSIONAL RIGIDITY MAY NOT BE 
             EVALUATED ACCURATELY SINCE THE CALCULATION IS BASED ON THE 
             ASSUMPTION THAT THE WALL THICKNESS IS MUCH SMALL IN COMPARISON TO 
             THE CROSS SECTION DIMENSION
  *beamsection, elset=ASSEMBLYSUSPENSIONBRIDGE_SUSPENSIONBRIDGE_TOWER_NORTH_CS_008, material=CONCRETE, section=BOX

 ***WARNING: ONE OR MORE THICKNESS OF THE BOX SECTION IS GREATER THAN 0.1 OF 
             THE CROSS SECTION DIMENSION. THE TORSIONAL RIGIDITY MAY NOT BE 
             EVALUATED ACCURATELY SINCE THE CALCULATION IS BASED ON THE 
             ASSUMPTION THAT THE WALL THICKNESS IS MUCH SMALL IN COMPARISON TO 
             THE CROSS SECTION DIMENSION
  *beamsection, elset=ASSEMBLYSUSPENSIONBRIDGE_SUSPENSIONBRIDGE_TOWER_SOUTH_CS_009, material=CONCRETE, section=BOX

 ***WARNING: ONE OR MORE THICKNESS OF THE BOX SECTION IS GREATER THAN 0.1 OF 
             THE CROSS SECTION DIMENSION. THE TORSIONAL RIGIDITY MAY NOT BE 
             EVALUATED ACCURATELY SINCE THE CALCULATION IS BASED ON THE 
             ASSUMPTION THAT THE WALL THICKNESS IS MUCH SMALL IN COMPARISON TO 
             THE CROSS SECTION DIMENSION
  *beamsection, elset=ASSEMBLYSUSPENSIONBRIDGE_SUSPENSIONBRIDGE_TOWER_NORTH_CS_009, material=CONCRETE, section=BOX

 ***WARNING: ONE OR MORE THICKNESS OF THE BOX SECTION IS GREATER THAN 0.1 OF 
             THE CROSS SECTION DIMENSION. THE TORSIONAL RIGIDITY MAY NOT BE 
             EVALUATED ACCURATELY SINCE THE CALCULATION IS BASED ON THE 
             ASSUMPTION THAT THE WALL THICKNESS IS MUCH SMALL IN COMPARISON TO 
             THE CROSS SECTION DIMENSION
  *beamsection, elset=ASSEMBLYSUSPENSIONBRIDGE_SUSPENSIONBRIDGE_TOWER_SOUTH_CS_010, material=CONCRETE, section=BOX

 ***WARNING: ONE OR MORE THICKNESS OF THE BOX SECTION IS GREATER THAN 0.1 OF 
             THE CROSS SECTION DIMENSION. THE TORSIONAL RIGIDITY MAY NOT BE 
             EVALUATED ACCURATELY SINCE THE CALCULATION IS BASED ON THE 
             ASSUMPTION THAT THE WALL THICKNESS IS MUCH SMALL IN COMPARISON TO 
             THE CROSS SECTION DIMENSION
  *beamsection, elset=ASSEMBLYSUSPENSIONBRIDGE_SUSPENSIONBRIDGE_TOWER_NORTH_CS_010, material=CONCRETE, section=BOX

 ***WARNING: ONE OR MORE THICKNESS OF THE BOX SECTION IS GREATER THAN 0.1 OF 
             THE CROSS SECTION DIMENSION. THE TORSIONAL RIGIDITY MAY NOT BE 
             EVALUATED ACCURATELY SINCE THE CALCULATION IS BASED ON THE 
             ASSUMPTION THAT THE WALL THICKNESS IS MUCH SMALL IN COMPARISON TO 
             THE CROSS SECTION DIMENSION
  *beamsection, elset=ASSEMBLYSUSPENSIONBRIDGE_SUSPENSIONBRIDGE_TOWER_SOUTH_CS_011, material=CONCRETE, section=BOX

 ***WARNING: ONE OR MORE THICKNESS OF THE BOX SECTION IS GREATER THAN 0.1 OF 
             THE CROSS SECTION DIMENSION. THE TORSIONAL RIGIDITY MAY NOT BE 
             EVALUATED ACCURATELY SINCE THE CALCULATION IS BASED ON THE 
             ASSUMPTION THAT THE WALL THICKNESS IS MUCH SMALL IN COMPARISON TO 
             THE CROSS SECTION DIMENSION
  *beamsection, elset=ASSEMBLYSUSPENSIONBRIDGE_SUSPENSIONBRIDGE_TOWER_NORTH_CS_011, material=CONCRETE, section=BOX

 ***WARNING: ONE OR MORE THICKNESS OF THE BOX SECTION IS GREATER THAN 0.1 OF 
             THE CROSS SECTION DIMENSION. THE TORSIONAL RIGIDITY MAY NOT BE 
             EVALUATED ACCURATELY SINCE THE CALCULATION IS BASED ON THE 
             ASSUMPTION THAT THE WALL THICKNESS IS MUCH SMALL IN COMPARISON TO 
             THE CROSS SECTION DIMENSION
  *beamsection, elset=ASSEMBLYSUSPENSIONBRIDGE_SUSPENSIONBRIDGE_TOWER_SOUTH_CS_012, material=CONCRETE, section=BOX

 ***WARNING: ONE OR MORE THICKNESS OF THE BOX SECTION IS GREATER THAN 0.1 OF 
             THE CROSS SECTION DIMENSION. THE TORSIONAL RIGIDITY MAY NOT BE 
             EVALUATED ACCURATELY SINCE THE CALCULATION IS BASED ON THE 
             ASSUMPTION THAT THE WALL THICKNESS IS MUCH SMALL IN COMPARISON TO 
             THE CROSS SECTION DIMENSION
  *beamsection, elset=ASSEMBLYSUSPENSIONBRIDGE_SUSPENSIONBRIDGE_TOWER_NORTH_CS_012, material=CONCRETE, section=BOX

 ***WARNING: ONE OR MORE THICKNESS OF THE BOX SECTION IS GREATER THAN 0.1 OF 
             THE CROSS SECTION DIMENSION. THE TORSIONAL RIGIDITY MAY NOT BE 
             EVALUATED ACCURATELY SINCE THE CALCULATION IS BASED ON THE 
             ASSUMPTION THAT THE WALL THICKNESS IS MUCH SMALL IN COMPARISON TO 
             THE CROSS SECTION DIMENSION
  *beamsection, elset=ASSEMBLYSUSPENSIONBRIDGE_SUSPENSIONBRIDGE_TOWER_SOUTH_CS_013, material=CONCRETE, section=BOX

 ***WARNING: ONE OR MORE THICKNESS OF THE BOX SECTION IS GREATER THAN 0.1 OF 
             THE CROSS SECTION DIMENSION. THE TORSIONAL RIGIDITY MAY NOT BE 
             EVALUATED ACCURATELY SINCE THE CALCULATION IS BASED ON THE 
             ASSUMPTION THAT THE WALL THICKNESS IS MUCH SMALL IN COMPARISON TO 
             THE CROSS SECTION DIMENSION
  *beamsection, elset=ASSEMBLYSUSPENSIONBRIDGE_SUSPENSIONBRIDGE_TOWER_NORTH_CS_013, material=CONCRETE, section=BOX

 ***WARNING: ONE OR MORE THICKNESS OF THE BOX SECTION IS GREATER THAN 0.1 OF 
             THE CROSS SECTION DIMENSION. THE TORSIONAL RIGIDITY MAY NOT BE 
             EVALUATED ACCURATELY SINCE THE CALCULATION IS BASED ON THE 
             ASSUMPTION THAT THE WALL THICKNESS IS MUCH SMALL IN COMPARISON TO 
             THE CROSS SECTION DIMENSION
  *beamsection, elset=ASSEMBLYSUSPENSIONBRIDGE_SUSPENSIONBRIDGE_TOWER_SOUTH_CS_014, material=CONCRETE, section=BOX

 ***WARNING: ONE OR MORE THICKNESS OF THE BOX SECTION IS GREATER THAN 0.1 OF 
             THE CROSS SECTION DIMENSION. THE TORSIONAL RIGIDITY MAY NOT BE 
             EVALUATED ACCURATELY SINCE THE CALCULATION IS BASED ON THE 
             ASSUMPTION THAT THE WALL THICKNESS IS MUCH SMALL IN COMPARISON TO 
             THE CROSS SECTION DIMENSION
  *beamsection, elset=ASSEMBLYSUSPENSIONBRIDGE_SUSPENSIONBRIDGE_TOWER_NORTH_CS_014, material=CONCRETE, section=BOX

 ***WARNING: ONE OR MORE THICKNESS OF THE BOX SECTION IS GREATER THAN 0.1 OF 
             THE CROSS SECTION DIMENSION. THE TORSIONAL RIGIDITY MAY NOT BE 
             EVALUATED ACCURATELY SINCE THE CALCULATION IS BASED ON THE 
             ASSUMPTION THAT THE WALL THICKNESS IS MUCH SMALL IN COMPARISON TO 
             THE CROSS SECTION DIMENSION
  *beamsection, elset=ASSEMBLYSUSPENSIONBRIDGE_SUSPENSIONBRIDGE_TOWER_SOUTH_CS_015, material=CONCRETE, section=BOX

 ***WARNING: ONE OR MORE THICKNESS OF THE BOX SECTION IS GREATER THAN 0.1 OF 
             THE CROSS SECTION DIMENSION. THE TORSIONAL RIGIDITY MAY NOT BE 
             EVALUATED ACCURATELY SINCE THE CALCULATION IS BASED ON THE 
             ASSUMPTION THAT THE WALL THICKNESS IS MUCH SMALL IN COMPARISON TO 
             THE CROSS SECTION DIMENSION
  *beamsection, elset=ASSEMBLYSUSPENSIONBRIDGE_SUSPENSIONBRIDGE_TOWER_NORTH_CS_015, material=CONCRETE, section=BOX

 ***WARNING: ONE OR MORE THICKNESS OF THE BOX SECTION IS GREATER THAN 0.1 OF 
             THE CROSS SECTION DIMENSION. THE TORSIONAL RIGIDITY MAY NOT BE 
             EVALUATED ACCURATELY SINCE THE CALCULATION IS BASED ON THE 
             ASSUMPTION THAT THE WALL THICKNESS IS MUCH SMALL IN COMPARISON TO 
             THE CROSS SECTION DIMENSION
  *beamsection, elset=ASSEMBLYSUSPENSIONBRIDGE_SUSPENSIONBRIDGE_TOWER_SOUTH_CS_016, material=CONCRETE, section=BOX

 ***WARNING: ONE OR MORE THICKNESS OF THE BOX SECTION IS GREATER THAN 0.1 OF 
             THE CROSS SECTION DIMENSION. THE TORSIONAL RIGIDITY MAY NOT BE 
             EVALUATED ACCURATELY SINCE THE CALCULATION IS BASED ON THE 
             ASSUMPTION THAT THE WALL THICKNESS IS MUCH SMALL IN COMPARISON TO 
             THE CROSS SECTION DIMENSION
  *beamsection, elset=ASSEMBLYSUSPENSIONBRIDGE_SUSPENSIONBRIDGE_TOWER_NORTH_CS_016, material=CONCRETE, section=BOX

 ***WARNING: ONE OR MORE THICKNESS OF THE BOX SECTION IS GREATER THAN 0.1 OF 
             THE CROSS SECTION DIMENSION. THE TORSIONAL RIGIDITY MAY NOT BE 
             EVALUATED ACCURATELY SINCE THE CALCULATION IS BASED ON THE 
             ASSUMPTION THAT THE WALL THICKNESS IS MUCH SMALL IN COMPARISON TO 
             THE CROSS SECTION DIMENSION
  *beamsection, elset=ASSEMBLYSUSPENSIONBRIDGE_SUSPENSIONBRIDGE_TOWER_SOUTH_CS_017, material=CONCRETE, section=BOX

 ***WARNING: ONE OR MORE THICKNESS OF THE BOX SECTION IS GREATER THAN 0.1 OF 
             THE CROSS SECTION DIMENSION. THE TORSIONAL RIGIDITY MAY NOT BE 
             EVALUATED ACCURATELY SINCE THE CALCULATION IS BASED ON THE 
             ASSUMPTION THAT THE WALL THICKNESS IS MUCH SMALL IN COMPARISON TO 
             THE CROSS SECTION DIMENSION
  *beamsection, elset=ASSEMBLYSUSPENSIONBRIDGE_SUSPENSIONBRIDGE_TOWER_NORTH_CS_017, material=CONCRETE, section=BOX

 ***WARNING: ONE OR MORE THICKNESS OF THE BOX SECTION IS GREATER THAN 0.1 OF 
             THE CROSS SECTION DIMENSION. THE TORSIONAL RIGIDITY MAY NOT BE 
             EVALUATED ACCURATELY SINCE THE CALCULATION IS BASED ON THE 
             ASSUMPTION THAT THE WALL THICKNESS IS MUCH SMALL IN COMPARISON TO 
             THE CROSS SECTION DIMENSION
  *beamsection, elset=ASSEMBLYSUSPENSIONBRIDGE_SUSPENSIONBRIDGE_TOWER_SOUTH_CS_018, material=CONCRETE, section=BOX

 ***WARNING: ONE OR MORE THICKNESS OF THE BOX SECTION IS GREATER THAN 0.1 OF 
             THE CROSS SECTION DIMENSION. THE TORSIONAL RIGIDITY MAY NOT BE 
             EVALUATED ACCURATELY SINCE THE CALCULATION IS BASED ON THE 
             ASSUMPTION THAT THE WALL THICKNESS IS MUCH SMALL IN COMPARISON TO 
             THE CROSS SECTION DIMENSION
  *beamsection, elset=ASSEMBLYSUSPENSIONBRIDGE_SUSPENSIONBRIDGE_TOWER_NORTH_CS_018, material=CONCRETE, section=BOX

 ***WARNING: ONE OR MORE THICKNESS OF THE BOX SECTION IS GREATER THAN 0.1 OF 
             THE CROSS SECTION DIMENSION. THE TORSIONAL RIGIDITY MAY NOT BE 
             EVALUATED ACCURATELY SINCE THE CALCULATION IS BASED ON THE 
             ASSUMPTION THAT THE WALL THICKNESS IS MUCH SMALL IN COMPARISON TO 
             THE CROSS SECTION DIMENSION
  *beamsection, elset=ASSEMBLYSUSPENSIONBRIDGE_SUSPENSIONBRIDGE_TOWER_SOUTH_CS_019, material=CONCRETE, section=BOX

 ***WARNING: ONE OR MORE THICKNESS OF THE BOX SECTION IS GREATER THAN 0.1 OF 
             THE CROSS SECTION DIMENSION. THE TORSIONAL RIGIDITY MAY NOT BE 
             EVALUATED ACCURATELY SINCE THE CALCULATION IS BASED ON THE 
             ASSUMPTION THAT THE WALL THICKNESS IS MUCH SMALL IN COMPARISON TO 
             THE CROSS SECTION DIMENSION
  *beamsection, elset=ASSEMBLYSUSPENSIONBRIDGE_SUSPENSIONBRIDGE_TOWER_NORTH_CS_019, material=CONCRETE, section=BOX

 ***WARNING: ONE OR MORE THICKNESS OF THE BOX SECTION IS GREATER THAN 0.1 OF 
             THE CROSS SECTION DIMENSION. THE TORSIONAL RIGIDITY MAY NOT BE 
             EVALUATED ACCURATELY SINCE THE CALCULATION IS BASED ON THE 
             ASSUMPTION THAT THE WALL THICKNESS IS MUCH SMALL IN COMPARISON TO 
             THE CROSS SECTION DIMENSION
  *beamsection, elset=ASSEMBLYSUSPENSIONBRIDGE_SUSPENSIONBRIDGE_TOWER_SOUTH_CS_020, material=CONCRETE, section=BOX

 ***WARNING: ONE OR MORE THICKNESS OF THE BOX SECTION IS GREATER THAN 0.1 OF 
             THE CROSS SECTION DIMENSION. THE TORSIONAL RIGIDITY MAY NOT BE 
             EVALUATED ACCURATELY SINCE THE CALCULATION IS BASED ON THE 
             ASSUMPTION THAT THE WALL THICKNESS IS MUCH SMALL IN COMPARISON TO 
             THE CROSS SECTION DIMENSION
  *beamsection, elset=ASSEMBLYSUSPENSIONBRIDGE_SUSPENSIONBRIDGE_TOWER_NORTH_CS_020, material=CONCRETE, section=BOX

 ***WARNING: ONE OR MORE THICKNESS OF THE BOX SECTION IS GREATER THAN 0.1 OF 
             THE CROSS SECTION DIMENSION. THE TORSIONAL RIGIDITY MAY NOT BE 
             EVALUATED ACCURATELY SINCE THE CALCULATION IS BASED ON THE 
             ASSUMPTION THAT THE WALL THICKNESS IS MUCH SMALL IN COMPARISON TO 
             THE CROSS SECTION DIMENSION
  *beamsection, elset=ASSEMBLYSUSPENSIONBRIDGE_SUSPENSIONBRIDGE_TOWER_SOUTH_CS_021, material=CONCRETE, section=BOX

 ***WARNING: ONE OR MORE THICKNESS OF THE BOX SECTION IS GREATER THAN 0.1 OF 
             THE CROSS SECTION DIMENSION. THE TORSIONAL RIGIDITY MAY NOT BE 
             EVALUATED ACCURATELY SINCE THE CALCULATION IS BASED ON THE 
             ASSUMPTION THAT THE WALL THICKNESS IS MUCH SMALL IN COMPARISON TO 
             THE CROSS SECTION DIMENSION
  *beamsection, elset=ASSEMBLYSUSPENSIONBRIDGE_SUSPENSIONBRIDGE_TOWER_NORTH_CS_021, material=CONCRETE, section=BOX

 ***WARNING: ONE OR MORE THICKNESS OF THE BOX SECTION IS GREATER THAN 0.1 OF 
             THE CROSS SECTION DIMENSION. THE TORSIONAL RIGIDITY MAY NOT BE 
             EVALUATED ACCURATELY SINCE THE CALCULATION IS BASED ON THE 
             ASSUMPTION THAT THE WALL THICKNESS IS MUCH SMALL IN COMPARISON TO 
             THE CROSS SECTION DIMENSION
  *beamsection, elset=ASSEMBLYSUSPENSIONBRIDGE_SUSPENSIONBRIDGE_TOWER_SOUTH_CS_022, material=CONCRETE, section=BOX

 ***WARNING: ONE OR MORE THICKNESS OF THE BOX SECTION IS GREATER THAN 0.1 OF 
             THE CROSS SECTION DIMENSION. THE TORSIONAL RIGIDITY MAY NOT BE 
             EVALUATED ACCURATELY SINCE THE CALCULATION IS BASED ON THE 
             ASSUMPTION THAT THE WALL THICKNESS IS MUCH SMALL IN COMPARISON TO 
             THE CROSS SECTION DIMENSION
  *beamsection, elset=ASSEMBLYSUSPENSIONBRIDGE_SUSPENSIONBRIDGE_TOWER_NORTH_CS_022, material=CONCRETE, section=BOX

 ***WARNING: ONE OR MORE THICKNESS OF THE BOX SECTION IS GREATER THAN 0.1 OF 
             THE CROSS SECTION DIMENSION. THE TORSIONAL RIGIDITY MAY NOT BE 
             EVALUATED ACCURATELY SINCE THE CALCULATION IS BASED ON THE 
             ASSUMPTION THAT THE WALL THICKNESS IS MUCH SMALL IN COMPARISON TO 
             THE CROSS SECTION DIMENSION
  *beamsection, elset=ASSEMBLYSUSPENSIONBRIDGE_SUSPENSIONBRIDGE_TOWER_SOUTH_CS_023, material=CONCRETE, section=BOX

 ***WARNING: ONE OR MORE THICKNESS OF THE BOX SECTION IS GREATER THAN 0.1 OF 
             THE CROSS SECTION DIMENSION. THE TORSIONAL RIGIDITY MAY NOT BE 
             EVALUATED ACCURATELY SINCE THE CALCULATION IS BASED ON THE 
             ASSUMPTION THAT THE WALL THICKNESS IS MUCH SMALL IN COMPARISON TO 
             THE CROSS SECTION DIMENSION
  *beamsection, elset=ASSEMBLYSUSPENSIONBRIDGE_SUSPENSIONBRIDGE_TOWER_NORTH_CS_023, material=CONCRETE, section=BOX

 ***WARNING: ONE OR MORE THICKNESS OF THE BOX SECTION IS GREATER THAN 0.1 OF 
             THE CROSS SECTION DIMENSION. THE TORSIONAL RIGIDITY MAY NOT BE 
             EVALUATED ACCURATELY SINCE THE CALCULATION IS BASED ON THE 
             ASSUMPTION THAT THE WALL THICKNESS IS MUCH SMALL IN COMPARISON TO 
             THE CROSS SECTION DIMENSION
  *beamsection, elset=ASSEMBLYSUSPENSIONBRIDGE_SUSPENSIONBRIDGE_TOWER_SOUTH_CS_024, material=CONCRETE, section=BOX

 ***WARNING: ONE OR MORE THICKNESS OF THE BOX SECTION IS GREATER THAN 0.1 OF 
             THE CROSS SECTION DIMENSION. THE TORSIONAL RIGIDITY MAY NOT BE 
             EVALUATED ACCURATELY SINCE THE CALCULATION IS BASED ON THE 
             ASSUMPTION THAT THE WALL THICKNESS IS MUCH SMALL IN COMPARISON TO 
             THE CROSS SECTION DIMENSION
  *beamsection, elset=ASSEMBLYSUSPENSIONBRIDGE_SUSPENSIONBRIDGE_TOWER_NORTH_CS_024, material=CONCRETE, section=BOX

 ***WARNING: ONE OR MORE THICKNESS OF THE BOX SECTION IS GREATER THAN 0.1 OF 
             THE CROSS SECTION DIMENSION. THE TORSIONAL RIGIDITY MAY NOT BE 
             EVALUATED ACCURATELY SINCE THE CALCULATION IS BASED ON THE 
             ASSUMPTION THAT THE WALL THICKNESS IS MUCH SMALL IN COMPARISON TO 
             THE CROSS SECTION DIMENSION
  *beamsection, elset=ASSEMBLYSUSPENSIONBRIDGE_SUSPENSIONBRIDGE_TOWER_SOUTH_CS_025, material=CONCRETE, section=BOX

 ***WARNING: ONE OR MORE THICKNESS OF THE BOX SECTION IS GREATER THAN 0.1 OF 
             THE CROSS SECTION DIMENSION. THE TORSIONAL RIGIDITY MAY NOT BE 
             EVALUATED ACCURATELY SINCE THE CALCULATION IS BASED ON THE 
             ASSUMPTION THAT THE WALL THICKNESS IS MUCH SMALL IN COMPARISON TO 
             THE CROSS SECTION DIMENSION
  *beamsection, elset=ASSEMBLYSUSPENSIONBRIDGE_SUSPENSIONBRIDGE_TOWER_NORTH_CS_025, material=CONCRETE, section=BOX

 ***WARNING: ONE OR MORE THICKNESS OF THE BOX SECTION IS GREATER THAN 0.1 OF 
             THE CROSS SECTION DIMENSION. THE TORSIONAL RIGIDITY MAY NOT BE 
             EVALUATED ACCURATELY SINCE THE CALCULATION IS BASED ON THE 
             ASSUMPTION THAT THE WALL THICKNESS IS MUCH SMALL IN COMPARISON TO 
             THE CROSS SECTION DIMENSION
  *beamsection, elset=ASSEMBLYSUSPENSIONBRIDGE_SUSPENSIONBRIDGE_TOWER_SOUTH_CS_026, material=CONCRETE, section=BOX

 ***WARNING: ONE OR MORE THICKNESS OF THE BOX SECTION IS GREATER THAN 0.1 OF 
             THE CROSS SECTION DIMENSION. THE TORSIONAL RIGIDITY MAY NOT BE 
             EVALUATED ACCURATELY SINCE THE CALCULATION IS BASED ON THE 
             ASSUMPTION THAT THE WALL THICKNESS IS MUCH SMALL IN COMPARISON TO 
             THE CROSS SECTION DIMENSION
  *beamsection, elset=ASSEMBLYSUSPENSIONBRIDGE_SUSPENSIONBRIDGE_TOWER_NORTH_CS_026, material=CONCRETE, section=BOX

 ***WARNING: ONE OR MORE THICKNESS OF THE BOX SECTION IS GREATER THAN 0.1 OF 
             THE CROSS SECTION DIMENSION. THE TORSIONAL RIGIDITY MAY NOT BE 
             EVALUATED ACCURATELY SINCE THE CALCULATION IS BASED ON THE 
             ASSUMPTION THAT THE WALL THICKNESS IS MUCH SMALL IN COMPARISON TO 
             THE CROSS SECTION DIMENSION
  *beamsection, elset=ASSEMBLYSUSPENSIONBRIDGE_SUSPENSIONBRIDGE_TOWER_SOUTH_CS_027, material=CONCRETE, section=BOX

 ***WARNING: ONE OR MORE THICKNESS OF THE BOX SECTION IS GREATER THAN 0.1 OF 
             THE CROSS SECTION DIMENSION. THE TORSIONAL RIGIDITY MAY NOT BE 
             EVALUATED ACCURATELY SINCE THE CALCULATION IS BASED ON THE 
             ASSUMPTION THAT THE WALL THICKNESS IS MUCH SMALL IN COMPARISON TO 
             THE CROSS SECTION DIMENSION
  *beamsection, elset=ASSEMBLYSUSPENSIONBRIDGE_SUSPENSIONBRIDGE_TOWER_NORTH_CS_027, material=CONCRETE, section=BOX

 ***WARNING: ONE OR MORE THICKNESS OF THE BOX SECTION IS GREATER THAN 0.1 OF 
             THE CROSS SECTION DIMENSION. THE TORSIONAL RIGIDITY MAY NOT BE 
             EVALUATED ACCURATELY SINCE THE CALCULATION IS BASED ON THE 
             ASSUMPTION THAT THE WALL THICKNESS IS MUCH SMALL IN COMPARISON TO 
             THE CROSS SECTION DIMENSION
  *beamsection, elset=ASSEMBLYSUSPENSIONBRIDGE_SUSPENSIONBRIDGE_TOWER_SOUTH_CS_028, material=CONCRETE, section=BOX

 ***WARNING: ONE OR MORE THICKNESS OF THE BOX SECTION IS GREATER THAN 0.1 OF 
             THE CROSS SECTION DIMENSION. THE TORSIONAL RIGIDITY MAY NOT BE 
             EVALUATED ACCURATELY SINCE THE CALCULATION IS BASED ON THE 
             ASSUMPTION THAT THE WALL THICKNESS IS MUCH SMALL IN COMPARISON TO 
             THE CROSS SECTION DIMENSION
  *beamsection, elset=ASSEMBLYSUSPENSIONBRIDGE_SUSPENSIONBRIDGE_TOWER_NORTH_CS_028, material=CONCRETE, section=BOX

 ***WARNING: ONE OR MORE THICKNESS OF THE BOX SECTION IS GREATER THAN 0.1 OF 
             THE CROSS SECTION DIMENSION. THE TORSIONAL RIGIDITY MAY NOT BE 
             EVALUATED ACCURATELY SINCE THE CALCULATION IS BASED ON THE 
             ASSUMPTION THAT THE WALL THICKNESS IS MUCH SMALL IN COMPARISON TO 
             THE CROSS SECTION DIMENSION
  *beamsection, elset=ASSEMBLYSUSPENSIONBRIDGE_SUSPENSIONBRIDGE_TOWER_SOUTH_CS_029, material=CONCRETE, section=BOX

 ***WARNING: ONE OR MORE THICKNESS OF THE BOX SECTION IS GREATER THAN 0.1 OF 
             THE CROSS SECTION DIMENSION. THE TORSIONAL RIGIDITY MAY NOT BE 
             EVALUATED ACCURATELY SINCE THE CALCULATION IS BASED ON THE 
             ASSUMPTION THAT THE WALL THICKNESS IS MUCH SMALL IN COMPARISON TO 
             THE CROSS SECTION DIMENSION
  *beamsection, elset=ASSEMBLYSUSPENSIONBRIDGE_SUSPENSIONBRIDGE_TOWER_NORTH_CS_029, material=CONCRETE, section=BOX

 ***WARNING: ONE OR MORE THICKNESS OF THE BOX SECTION IS GREATER THAN 0.1 OF 
             THE CROSS SECTION DIMENSION. THE TORSIONAL RIGIDITY MAY NOT BE 
             EVALUATED ACCURATELY SINCE THE CALCULATION IS BASED ON THE 
             ASSUMPTION THAT THE WALL THICKNESS IS MUCH SMALL IN COMPARISON TO 
             THE CROSS SECTION DIMENSION
  *beamsection, elset=ASSEMBLYSUSPENSIONBRIDGE_SUSPENSIONBRIDGE_TOWER_SOUTH_CS_030, material=CONCRETE, section=BOX

 ***WARNING: ONE OR MORE THICKNESS OF THE BOX SECTION IS GREATER THAN 0.1 OF 
             THE CROSS SECTION DIMENSION. THE TORSIONAL RIGIDITY MAY NOT BE 
             EVALUATED ACCURATELY SINCE THE CALCULATION IS BASED ON THE 
             ASSUMPTION THAT THE WALL THICKNESS IS MUCH SMALL IN COMPARISON TO 
             THE CROSS SECTION DIMENSION
  *beamsection, elset=ASSEMBLYSUSPENSIONBRIDGE_SUSPENSIONBRIDGE_TOWER_NORTH_CS_030, material=CONCRETE, section=BOX

 ***WARNING: ONE OR MORE THICKNESS OF THE BOX SECTION IS GREATER THAN 0.1 OF 
             THE CROSS SECTION DIMENSION. THE TORSIONAL RIGIDITY MAY NOT BE 
             EVALUATED ACCURATELY SINCE THE CALCULATION IS BASED ON THE 
             ASSUMPTION THAT THE WALL THICKNESS IS MUCH SMALL IN COMPARISON TO 
             THE CROSS SECTION DIMENSION
  *beamsection, elset=ASSEMBLYSUSPENSIONBRIDGE_SUSPENSIONBRIDGE_TOWER_SOUTH_CS_031, material=CONCRETE, section=BOX

 ***WARNING: ONE OR MORE THICKNESS OF THE BOX SECTION IS GREATER THAN 0.1 OF 
             THE CROSS SECTION DIMENSION. THE TORSIONAL RIGIDITY MAY NOT BE 
             EVALUATED ACCURATELY SINCE THE CALCULATION IS BASED ON THE 
             ASSUMPTION THAT THE WALL THICKNESS IS MUCH SMALL IN COMPARISON TO 
             THE CROSS SECTION DIMENSION
  *beamsection, elset=ASSEMBLYSUSPENSIONBRIDGE_SUSPENSIONBRIDGE_TOWER_NORTH_CS_031, material=CONCRETE, section=BOX

 ***WARNING: ONE OR MORE THICKNESS OF THE BOX SECTION IS GREATER THAN 0.1 OF 
             THE CROSS SECTION DIMENSION. THE TORSIONAL RIGIDITY MAY NOT BE 
             EVALUATED ACCURATELY SINCE THE CALCULATION IS BASED ON THE 
             ASSUMPTION THAT THE WALL THICKNESS IS MUCH SMALL IN COMPARISON TO 
             THE CROSS SECTION DIMENSION
  *beamsection, elset=ASSEMBLYSUSPENSIONBRIDGE_SUSPENSIONBRIDGE_TOWER_SOUTH_CS_032, material=CONCRETE, section=BOX

 ***WARNING: ONE OR MORE THICKNESS OF THE BOX SECTION IS GREATER THAN 0.1 OF 
             THE CROSS SECTION DIMENSION. THE TORSIONAL RIGIDITY MAY NOT BE 
             EVALUATED ACCURATELY SINCE THE CALCULATION IS BASED ON THE 
             ASSUMPTION THAT THE WALL THICKNESS IS MUCH SMALL IN COMPARISON TO 
             THE CROSS SECTION DIMENSION
  *beamsection, elset=ASSEMBLYSUSPENSIONBRIDGE_SUSPENSIONBRIDGE_TOWER_NORTH_CS_032, material=CONCRETE, section=BOX

 ***WARNING: ONE OR MORE THICKNESS OF THE BOX SECTION IS GREATER THAN 0.1 OF 
             THE CROSS SECTION DIMENSION. THE TORSIONAL RIGIDITY MAY NOT BE 
             EVALUATED ACCURATELY SINCE THE CALCULATION IS BASED ON THE 
             ASSUMPTION THAT THE WALL THICKNESS IS MUCH SMALL IN COMPARISON TO 
             THE CROSS SECTION DIMENSION
  *beamsection, elset=ASSEMBLYSUSPENSIONBRIDGE_SUSPENSIONBRIDGE_TOWER_SOUTH_CS_033, material=CONCRETE, section=BOX

 ***WARNING: ONE OR MORE THICKNESS OF THE BOX SECTION IS GREATER THAN 0.1 OF 
             THE CROSS SECTION DIMENSION. THE TORSIONAL RIGIDITY MAY NOT BE 
             EVALUATED ACCURATELY SINCE THE CALCULATION IS BASED ON THE 
             ASSUMPTION THAT THE WALL THICKNESS IS MUCH SMALL IN COMPARISON TO 
             THE CROSS SECTION DIMENSION
  *beamsection, elset=ASSEMBLYSUSPENSIONBRIDGE_SUSPENSIONBRIDGE_TOWER_NORTH_CS_033, material=CONCRETE, section=BOX

 ***WARNING: ONE OR MORE THICKNESS OF THE BOX SECTION IS GREATER THAN 0.1 OF 
             THE CROSS SECTION DIMENSION. THE TORSIONAL RIGIDITY MAY NOT BE 
             EVALUATED ACCURATELY SINCE THE CALCULATION IS BASED ON THE 
             ASSUMPTION THAT THE WALL THICKNESS IS MUCH SMALL IN COMPARISON TO 
             THE CROSS SECTION DIMENSION
  *beamsection, elset=ASSEMBLYSUSPENSIONBRIDGE_SUSPENSIONBRIDGE_TOWER_SOUTH_CS_034, material=CONCRETE, section=BOX

 ***WARNING: ONE OR MORE THICKNESS OF THE BOX SECTION IS GREATER THAN 0.1 OF 
             THE CROSS SECTION DIMENSION. THE TORSIONAL RIGIDITY MAY NOT BE 
             EVALUATED ACCURATELY SINCE THE CALCULATION IS BASED ON THE 
             ASSUMPTION THAT THE WALL THICKNESS IS MUCH SMALL IN COMPARISON TO 
             THE CROSS SECTION DIMENSION
  *beamsection, elset=ASSEMBLYSUSPENSIONBRIDGE_SUSPENSIONBRIDGE_TOWER_NORTH_CS_034, material=CONCRETE, section=BOX

 ***WARNING: ONE OR MORE THICKNESS OF THE BOX SECTION IS GREATER THAN 0.1 OF 
             THE CROSS SECTION DIMENSION. THE TORSIONAL RIGIDITY MAY NOT BE 
             EVALUATED ACCURATELY SINCE THE CALCULATION IS BASED ON THE 
             ASSUMPTION THAT THE WALL THICKNESS IS MUCH SMALL IN COMPARISON TO 
             THE CROSS SECTION DIMENSION
  *beamsection, elset=ASSEMBLYSUSPENSIONBRIDGE_SUSPENSIONBRIDGE_TOWER_SOUTH_CS_035, material=CONCRETE, section=BOX

 ***WARNING: ONE OR MORE THICKNESS OF THE BOX SECTION IS GREATER THAN 0.1 OF 
             THE CROSS SECTION DIMENSION. THE TORSIONAL RIGIDITY MAY NOT BE 
             EVALUATED ACCURATELY SINCE THE CALCULATION IS BASED ON THE 
             ASSUMPTION THAT THE WALL THICKNESS IS MUCH SMALL IN COMPARISON TO 
             THE CROSS SECTION DIMENSION
  *beamsection, elset=ASSEMBLYSUSPENSIONBRIDGE_SUSPENSIONBRIDGE_TOWER_NORTH_CS_035, material=CONCRETE, section=BOX

 ***WARNING: ONE OR MORE THICKNESS OF THE BOX SECTION IS GREATER THAN 0.1 OF 
             THE CROSS SECTION DIMENSION. THE TORSIONAL RIGIDITY MAY NOT BE 
             EVALUATED ACCURATELY SINCE THE CALCULATION IS BASED ON THE 
             ASSUMPTION THAT THE WALL THICKNESS IS MUCH SMALL IN COMPARISON TO 
             THE CROSS SECTION DIMENSION
  *beamsection, elset=ASSEMBLYSUSPENSIONBRIDGE_SUSPENSIONBRIDGE_TOWER_SOUTH_CS_036, material=CONCRETE, section=BOX

 ***WARNING: ONE OR MORE THICKNESS OF THE BOX SECTION IS GREATER THAN 0.1 OF 
             THE CROSS SECTION DIMENSION. THE TORSIONAL RIGIDITY MAY NOT BE 
             EVALUATED ACCURATELY SINCE THE CALCULATION IS BASED ON THE 
             ASSUMPTION THAT THE WALL THICKNESS IS MUCH SMALL IN COMPARISON TO 
             THE CROSS SECTION DIMENSION
  *beamsection, elset=ASSEMBLYSUSPENSIONBRIDGE_SUSPENSIONBRIDGE_TOWER_NORTH_CS_036, material=CONCRETE, section=BOX

 ***WARNING: ONE OR MORE THICKNESS OF THE BOX SECTION IS GREATER THAN 0.1 OF 
             THE CROSS SECTION DIMENSION. THE TORSIONAL RIGIDITY MAY NOT BE 
             EVALUATED ACCURATELY SINCE THE CALCULATION IS BASED ON THE 
             ASSUMPTION THAT THE WALL THICKNESS IS MUCH SMALL IN COMPARISON TO 
             THE CROSS SECTION DIMENSION
  *beamsection, elset=ASSEMBLYSUSPENSIONBRIDGE_SUSPENSIONBRIDGE_TOWER_SOUTH_CS_037, material=CONCRETE, section=BOX

 ***WARNING: ONE OR MORE THICKNESS OF THE BOX SECTION IS GREATER THAN 0.1 OF 
             THE CROSS SECTION DIMENSION. THE TORSIONAL RIGIDITY MAY NOT BE 
             EVALUATED ACCURATELY SINCE THE CALCULATION IS BASED ON THE 
             ASSUMPTION THAT THE WALL THICKNESS IS MUCH SMALL IN COMPARISON TO 
             THE CROSS SECTION DIMENSION
  *beamsection, elset=ASSEMBLYSUSPENSIONBRIDGE_SUSPENSIONBRIDGE_TOWER_NORTH_CS_037, material=CONCRETE, section=BOX

 ***WARNING: ONE OR MORE THICKNESS OF THE BOX SECTION IS GREATER THAN 0.1 OF 
             THE CROSS SECTION DIMENSION. THE TORSIONAL RIGIDITY MAY NOT BE 
             EVALUATED ACCURATELY SINCE THE CALCULATION IS BASED ON THE 
             ASSUMPTION THAT THE WALL THICKNESS IS MUCH SMALL IN COMPARISON TO 
             THE CROSS SECTION DIMENSION
  *beamsection, elset=ASSEMBLYSUSPENSIONBRIDGE_SUSPENSIONBRIDGE_TOWER_SOUTH_CS_038, material=CONCRETE, section=BOX

 ***WARNING: ONE OR MORE THICKNESS OF THE BOX SECTION IS GREATER THAN 0.1 OF 
             THE CROSS SECTION DIMENSION. THE TORSIONAL RIGIDITY MAY NOT BE 
             EVALUATED ACCURATELY SINCE THE CALCULATION IS BASED ON THE 
             ASSUMPTION THAT THE WALL THICKNESS IS MUCH SMALL IN COMPARISON TO 
             THE CROSS SECTION DIMENSION
  *beamsection, elset=ASSEMBLYSUSPENSIONBRIDGE_SUSPENSIONBRIDGE_TOWER_NORTH_CS_038, material=CONCRETE, section=BOX

 ***WARNING: ONE OR MORE THICKNESS OF THE BOX SECTION IS GREATER THAN 0.1 OF 
             THE CROSS SECTION DIMENSION. THE TORSIONAL RIGIDITY MAY NOT BE 
             EVALUATED ACCURATELY SINCE THE CALCULATION IS BASED ON THE 
             ASSUMPTION THAT THE WALL THICKNESS IS MUCH SMALL IN COMPARISON TO 
             THE CROSS SECTION DIMENSION
  *beamsection, elset=ASSEMBLYSUSPENSIONBRIDGE_SUSPENSIONBRIDGE_TOWER_SOUTH_CS_039, material=CONCRETE, section=BOX

 ***WARNING: ONE OR MORE THICKNESS OF THE BOX SECTION IS GREATER THAN 0.1 OF 
             THE CROSS SECTION DIMENSION. THE TORSIONAL RIGIDITY MAY NOT BE 
             EVALUATED ACCURATELY SINCE THE CALCULATION IS BASED ON THE 
             ASSUMPTION THAT THE WALL THICKNESS IS MUCH SMALL IN COMPARISON TO 
             THE CROSS SECTION DIMENSION
  *beamsection, elset=ASSEMBLYSUSPENSIONBRIDGE_SUSPENSIONBRIDGE_TOWER_NORTH_CS_039, material=CONCRETE, section=BOX

 ***WARNING: ONE OR MORE THICKNESS OF THE BOX SECTION IS GREATER THAN 0.1 OF 
             THE CROSS SECTION DIMENSION. THE TORSIONAL RIGIDITY MAY NOT BE 
             EVALUATED ACCURATELY SINCE THE CALCULATION IS BASED ON THE 
             ASSUMPTION THAT THE WALL THICKNESS IS MUCH SMALL IN COMPARISON TO 
             THE CROSS SECTION DIMENSION
  *beamsection, elset=ASSEMBLYSUSPENSIONBRIDGE_SUSPENSIONBRIDGE_TOWER_SOUTH_CS_040, material=CONCRETE, section=BOX

 ***WARNING: ONE OR MORE THICKNESS OF THE BOX SECTION IS GREATER THAN 0.1 OF 
             THE CROSS SECTION DIMENSION. THE TORSIONAL RIGIDITY MAY NOT BE 
             EVALUATED ACCURATELY SINCE THE CALCULATION IS BASED ON THE 
             ASSUMPTION THAT THE WALL THICKNESS IS MUCH SMALL IN COMPARISON TO 
             THE CROSS SECTION DIMENSION
  *beamsection, elset=ASSEMBLYSUSPENSIONBRIDGE_SUSPENSIONBRIDGE_TOWER_NORTH_CS_040, material=CONCRETE, section=BOX

 ***WARNING: ONE OR MORE THICKNESS OF THE BOX SECTION IS GREATER THAN 0.1 OF 
             THE CROSS SECTION DIMENSION. THE TORSIONAL RIGIDITY MAY NOT BE 
             EVALUATED ACCURATELY SINCE THE CALCULATION IS BASED ON THE 
             ASSUMPTION THAT THE WALL THICKNESS IS MUCH SMALL IN COMPARISON TO 
             THE CROSS SECTION DIMENSION
  *beamsection, elset=ASSEMBLYSUSPENSIONBRIDGE_SUSPENSIONBRIDGE_TOWER_SOUTH_CS_041, material=CONCRETE, section=BOX

 ***WARNING: ONE OR MORE THICKNESS OF THE BOX SECTION IS GREATER THAN 0.1 OF 
             THE CROSS SECTION DIMENSION. THE TORSIONAL RIGIDITY MAY NOT BE 
             EVALUATED ACCURATELY SINCE THE CALCULATION IS BASED ON THE 
             ASSUMPTION THAT THE WALL THICKNESS IS MUCH SMALL IN COMPARISON TO 
             THE CROSS SECTION DIMENSION
  *beamsection, elset=ASSEMBLYSUSPENSIONBRIDGE_SUSPENSIONBRIDGE_TOWER_NORTH_CS_041, material=CONCRETE, section=BOX

 ***WARNING: ONE OR MORE THICKNESS OF THE BOX SECTION IS GREATER THAN 0.1 OF 
             THE CROSS SECTION DIMENSION. THE TORSIONAL RIGIDITY MAY NOT BE 
             EVALUATED ACCURATELY SINCE THE CALCULATION IS BASED ON THE 
             ASSUMPTION THAT THE WALL THICKNESS IS MUCH SMALL IN COMPARISON TO 
             THE CROSS SECTION DIMENSION
  *beamsection, elset=ASSEMBLYSUSPENSIONBRIDGE_SUSPENSIONBRIDGE_TOWER_SOUTH_CS_042, material=CONCRETE, section=BOX

 ***WARNING: ONE OR MORE THICKNESS OF THE BOX SECTION IS GREATER THAN 0.1 OF 
             THE CROSS SECTION DIMENSION. THE TORSIONAL RIGIDITY MAY NOT BE 
             EVALUATED ACCURATELY SINCE THE CALCULATION IS BASED ON THE 
             ASSUMPTION THAT THE WALL THICKNESS IS MUCH SMALL IN COMPARISON TO 
             THE CROSS SECTION DIMENSION
  *beamsection, elset=ASSEMBLYSUSPENSIONBRIDGE_SUSPENSIONBRIDGE_TOWER_NORTH_CS_042, material=CONCRETE, section=BOX

 ***WARNING: ONE OR MORE THICKNESS OF THE BOX SECTION IS GREATER THAN 0.1 OF 
             THE CROSS SECTION DIMENSION. THE TORSIONAL RIGIDITY MAY NOT BE 
             EVALUATED ACCURATELY SINCE THE CALCULATION IS BASED ON THE 
             ASSUMPTION THAT THE WALL THICKNESS IS MUCH SMALL IN COMPARISON TO 
             THE CROSS SECTION DIMENSION
  *beamsection, elset=ASSEMBLYSUSPENSIONBRIDGE_SUSPENSIONBRIDGE_TOWER_SOUTH_CS_043, material=CONCRETE, section=BOX

 ***WARNING: ONE OR MORE THICKNESS OF THE BOX SECTION IS GREATER THAN 0.1 OF 
             THE CROSS SECTION DIMENSION. THE TORSIONAL RIGIDITY MAY NOT BE 
             EVALUATED ACCURATELY SINCE THE CALCULATION IS BASED ON THE 
             ASSUMPTION THAT THE WALL THICKNESS IS MUCH SMALL IN COMPARISON TO 
             THE CROSS SECTION DIMENSION
  *beamsection, elset=ASSEMBLYSUSPENSIONBRIDGE_SUSPENSIONBRIDGE_TOWER_NORTH_CS_043, material=CONCRETE, section=BOX

 ***WARNING: ONE OR MORE THICKNESS OF THE BOX SECTION IS GREATER THAN 0.1 OF 
             THE CROSS SECTION DIMENSION. THE TORSIONAL RIGIDITY MAY NOT BE 
             EVALUATED ACCURATELY SINCE THE CALCULATION IS BASED ON THE 
             ASSUMPTION THAT THE WALL THICKNESS IS MUCH SMALL IN COMPARISON TO 
             THE CROSS SECTION DIMENSION
  *beamsection, elset=ASSEMBLYSUSPENSIONBRIDGE_SUSPENSIONBRIDGE_TOWER_SOUTH_CS_044, material=CONCRETE, section=BOX

 ***WARNING: ONE OR MORE THICKNESS OF THE BOX SECTION IS GREATER THAN 0.1 OF 
             THE CROSS SECTION DIMENSION. THE TORSIONAL RIGIDITY MAY NOT BE 
             EVALUATED ACCURATELY SINCE THE CALCULATION IS BASED ON THE 
             ASSUMPTION THAT THE WALL THICKNESS IS MUCH SMALL IN COMPARISON TO 
             THE CROSS SECTION DIMENSION
  *beamsection, elset=ASSEMBLYSUSPENSIONBRIDGE_SUSPENSIONBRIDGE_TOWER_NORTH_CS_044, material=CONCRETE, section=BOX

 ***WARNING: ONE OR MORE THICKNESS OF THE BOX SECTION IS GREATER THAN 0.1 OF 
             THE CROSS SECTION DIMENSION. THE TORSIONAL RIGIDITY MAY NOT BE 
             EVALUATED ACCURATELY SINCE THE CALCULATION IS BASED ON THE 
             ASSUMPTION THAT THE WALL THICKNESS IS MUCH SMALL IN COMPARISON TO 
             THE CROSS SECTION DIMENSION
  *beamsection, elset=ASSEMBLYSUSPENSIONBRIDGE_SUSPENSIONBRIDGE_TOWER_SOUTH_CS_045, material=CONCRETE, section=BOX

 ***WARNING: ONE OR MORE THICKNESS OF THE BOX SECTION IS GREATER THAN 0.1 OF 
             THE CROSS SECTION DIMENSION. THE TORSIONAL RIGIDITY MAY NOT BE 
             EVALUATED ACCURATELY SINCE THE CALCULATION IS BASED ON THE 
             ASSUMPTION THAT THE WALL THICKNESS IS MUCH SMALL IN COMPARISON TO 
             THE CROSS SECTION DIMENSION
  *beamsection, elset=ASSEMBLYSUSPENSIONBRIDGE_SUSPENSIONBRIDGE_TOWER_NORTH_CS_045, material=CONCRETE, section=BOX

 ***WARNING: ONE OR MORE THICKNESS OF THE BOX SECTION IS GREATER THAN 0.1 OF 
             THE CROSS SECTION DIMENSION. THE TORSIONAL RIGIDITY MAY NOT BE 
             EVALUATED ACCURATELY SINCE THE CALCULATION IS BASED ON THE 
             ASSUMPTION THAT THE WALL THICKNESS IS MUCH SMALL IN COMPARISON TO 
             THE CROSS SECTION DIMENSION
  *beamsection, elset=ASSEMBLYSUSPENSIONBRIDGE_SUSPENSIONBRIDGE_TOWER_SOUTH_CS_046, material=CONCRETE, section=BOX

 ***WARNING: ONE OR MORE THICKNESS OF THE BOX SECTION IS GREATER THAN 0.1 OF 
             THE CROSS SECTION DIMENSION. THE TORSIONAL RIGIDITY MAY NOT BE 
             EVALUATED ACCURATELY SINCE THE CALCULATION IS BASED ON THE 
             ASSUMPTION THAT THE WALL THICKNESS IS MUCH SMALL IN COMPARISON TO 
             THE CROSS SECTION DIMENSION
  *beamsection, elset=ASSEMBLYSUSPENSIONBRIDGE_SUSPENSIONBRIDGE_TOWER_NORTH_CS_046, material=CONCRETE, section=BOX

 ***WARNING: ONE OR MORE THICKNESS OF THE BOX SECTION IS GREATER THAN 0.1 OF 
             THE CROSS SECTION DIMENSION. THE TORSIONAL RIGIDITY MAY NOT BE 
             EVALUATED ACCURATELY SINCE THE CALCULATION IS BASED ON THE 
             ASSUMPTION THAT THE WALL THICKNESS IS MUCH SMALL IN COMPARISON TO 
             THE CROSS SECTION DIMENSION
  *beamsection, elset=ASSEMBLYSUSPENSIONBRIDGE_SUSPENSIONBRIDGE_TOWER_SOUTH_CS_047, material=CONCRETE, section=BOX

 ***WARNING: ONE OR MORE THICKNESS OF THE BOX SECTION IS GREATER THAN 0.1 OF 
             THE CROSS SECTION DIMENSION. THE TORSIONAL RIGIDITY MAY NOT BE 
             EVALUATED ACCURATELY SINCE THE CALCULATION IS BASED ON THE 
             ASSUMPTION THAT THE WALL THICKNESS IS MUCH SMALL IN COMPARISON TO 
             THE CROSS SECTION DIMENSION
  *beamsection, elset=ASSEMBLYSUSPENSIONBRIDGE_SUSPENSIONBRIDGE_TOWER_NORTH_CS_047, material=CONCRETE, section=BOX

 ***WARNING: ONE OR MORE THICKNESS OF THE BOX SECTION IS GREATER THAN 0.1 OF 
             THE CROSS SECTION DIMENSION. THE TORSIONAL RIGIDITY MAY NOT BE 
             EVALUATED ACCURATELY SINCE THE CALCULATION IS BASED ON THE 
             ASSUMPTION THAT THE WALL THICKNESS IS MUCH SMALL IN COMPARISON TO 
             THE CROSS SECTION DIMENSION
  *beamsection, elset=ASSEMBLYSUSPENSIONBRIDGE_SUSPENSIONBRIDGE_TOWER_SOUTH_CS_048, material=CONCRETE, section=BOX

 ***WARNING: ONE OR MORE THICKNESS OF THE BOX SECTION IS GREATER THAN 0.1 OF 
             THE CROSS SECTION DIMENSION. THE TORSIONAL RIGIDITY MAY NOT BE 
             EVALUATED ACCURATELY SINCE THE CALCULATION IS BASED ON THE 
             ASSUMPTION THAT THE WALL THICKNESS IS MUCH SMALL IN COMPARISON TO 
             THE CROSS SECTION DIMENSION
  *beamsection, elset=ASSEMBLYSUSPENSIONBRIDGE_SUSPENSIONBRIDGE_TOWER_NORTH_CS_048, material=CONCRETE, section=BOX

 ***WARNING: ONE OR MORE THICKNESS OF THE BOX SECTION IS GREATER THAN 0.1 OF 
             THE CROSS SECTION DIMENSION. THE TORSIONAL RIGIDITY MAY NOT BE 
             EVALUATED ACCURATELY SINCE THE CALCULATION IS BASED ON THE 
             ASSUMPTION THAT THE WALL THICKNESS IS MUCH SMALL IN COMPARISON TO 
             THE CROSS SECTION DIMENSION
  *beamsection, elset=ASSEMBLYSUSPENSIONBRIDGE_SUSPENSIONBRIDGE_TOWER_SOUTH_CS_049, material=CONCRETE, section=BOX

 ***WARNING: ONE OR MORE THICKNESS OF THE BOX SECTION IS GREATER THAN 0.1 OF 
             THE CROSS SECTION DIMENSION. THE TORSIONAL RIGIDITY MAY NOT BE 
             EVALUATED ACCURATELY SINCE THE CALCULATION IS BASED ON THE 
             ASSUMPTION THAT THE WALL THICKNESS IS MUCH SMALL IN COMPARISON TO 
             THE CROSS SECTION DIMENSION
  *beamsection, elset=ASSEMBLYSUSPENSIONBRIDGE_SUSPENSIONBRIDGE_TOWER_NORTH_CS_049, material=CONCRETE, section=BOX

 ***WARNING: ONE OR MORE THICKNESS OF THE BOX SECTION IS GREATER THAN 0.1 OF 
             THE CROSS SECTION DIMENSION. THE TORSIONAL RIGIDITY MAY NOT BE 
             EVALUATED ACCURATELY SINCE THE CALCULATION IS BASED ON THE 
             ASSUMPTION THAT THE WALL THICKNESS IS MUCH SMALL IN COMPARISON TO 
             THE CROSS SECTION DIMENSION
  *beamsection, elset=ASSEMBLYSUSPENSIONBRIDGE_SUSPENSIONBRIDGE_TOWER_SOUTH_CS_050, material=CONCRETE, section=BOX

 ***WARNING: ONE OR MORE THICKNESS OF THE BOX SECTION IS GREATER THAN 0.1 OF 
             THE CROSS SECTION DIMENSION. THE TORSIONAL RIGIDITY MAY NOT BE 
             EVALUATED ACCURATELY SINCE THE CALCULATION IS BASED ON THE 
             ASSUMPTION THAT THE WALL THICKNESS IS MUCH SMALL IN COMPARISON TO 
             THE CROSS SECTION DIMENSION
  *beamsection, elset=ASSEMBLYSUSPENSIONBRIDGE_SUSPENSIONBRIDGE_TOWER_NORTH_CS_050, material=CONCRETE, section=BOX

 ***WARNING: ONE OR MORE THICKNESS OF THE BOX SECTION IS GREATER THAN 0.1 OF 
             THE CROSS SECTION DIMENSION. THE TORSIONAL RIGIDITY MAY NOT BE 
             EVALUATED ACCURATELY SINCE THE CALCULATION IS BASED ON THE 
             ASSUMPTION THAT THE WALL THICKNESS IS MUCH SMALL IN COMPARISON TO 
             THE CROSS SECTION DIMENSION
  *beamsection, elset=ASSEMBLYSUSPENSIONBRIDGE_SUSPENSIONBRIDGE_TOWER_SOUTH_CS_051, material=CONCRETE, section=BOX

 ***WARNING: ONE OR MORE THICKNESS OF THE BOX SECTION IS GREATER THAN 0.1 OF 
             THE CROSS SECTION DIMENSION. THE TORSIONAL RIGIDITY MAY NOT BE 
             EVALUATED ACCURATELY SINCE THE CALCULATION IS BASED ON THE 
             ASSUMPTION THAT THE WALL THICKNESS IS MUCH SMALL IN COMPARISON TO 
             THE CROSS SECTION DIMENSION
  *beamsection, elset=ASSEMBLYSUSPENSIONBRIDGE_SUSPENSIONBRIDGE_TOWER_NORTH_CS_051, material=CONCRETE, section=BOX

 ***WARNING: ONE OR MORE THICKNESS OF THE BOX SECTION IS GREATER THAN 0.1 OF 
             THE CROSS SECTION DIMENSION. THE TORSIONAL RIGIDITY MAY NOT BE 
             EVALUATED ACCURATELY SINCE THE CALCULATION IS BASED ON THE 
[...]
             ASSUMPTION THAT THE WALL THICKNESS IS MUCH SMALL IN COMPARISON TO 
             THE CROSS SECTION DIMENSION
  *beamsection, elset=ASSEMBLYSUSPENSIONBRIDGE_SUSPENSIONBRIDGE_TOWER_NORTH_CS_074, material=CONCRETE, section=BOX

 ***WARNING: ONE OR MORE THICKNESS OF THE BOX SECTION IS GREATER THAN 0.1 OF 
             THE CROSS SECTION DIMENSION. THE TORSIONAL RIGIDITY MAY NOT BE 
             EVALUATED ACCURATELY SINCE THE CALCULATION IS BASED ON THE 
             ASSUMPTION THAT THE WALL THICKNESS IS MUCH SMALL IN COMPARISON TO 
             THE CROSS SECTION DIMENSION
  *beamsection, elset=ASSEMBLYSUSPENSIONBRIDGE_SUSPENSIONBRIDGE_TOWER_CROSSBEAM_SOUTH_1, material=CONCRETE, section=BOX

 ***WARNING: ONE OR MORE THICKNESS OF THE BOX SECTION IS GREATER THAN 0.1 OF 
             THE CROSS SECTION DIMENSION. THE TORSIONAL RIGIDITY MAY NOT BE 
             EVALUATED ACCURATELY SINCE THE CALCULATION IS BASED ON THE 
             ASSUMPTION THAT THE WALL THICKNESS IS MUCH SMALL IN COMPARISON TO 
             THE CROSS SECTION DIMENSION
  *beamsection, elset=ASSEMBLYSUSPENSIONBRIDGE_SUSPENSIONBRIDGE_TOWER_CROSSBEAM_NORTH_1, material=CONCRETE, section=BOX

 ***WARNING: ONE OR MORE THICKNESS OF THE BOX SECTION IS GREATER THAN 0.1 OF 
             THE CROSS SECTION DIMENSION. THE TORSIONAL RIGIDITY MAY NOT BE 
             EVALUATED ACCURATELY SINCE THE CALCULATION IS BASED ON THE 
             ASSUMPTION THAT THE WALL THICKNESS IS MUCH SMALL IN COMPARISON TO 
             THE CROSS SECTION DIMENSION
  *beamsection, elset=ASSEMBLYSUSPENSIONBRIDGE_SUSPENSIONBRIDGE_TOWER_CROSSBEAM_SOUTH_2, material=CONCRETE, section=BOX

 ***WARNING: ONE OR MORE THICKNESS OF THE BOX SECTION IS GREATER THAN 0.1 OF 
             THE CROSS SECTION DIMENSION. THE TORSIONAL RIGIDITY MAY NOT BE 
             EVALUATED ACCURATELY SINCE THE CALCULATION IS BASED ON THE 
             ASSUMPTION THAT THE WALL THICKNESS IS MUCH SMALL IN COMPARISON TO 
             THE CROSS SECTION DIMENSION
  *beamsection, elset=ASSEMBLYSUSPENSIONBRIDGE_SUSPENSIONBRIDGE_TOWER_CROSSBEAM_NORTH_2, material=CONCRETE, section=BOX

 ***WARNING: ONE OR MORE THICKNESS OF THE BOX SECTION IS GREATER THAN 0.1 OF 
             THE CROSS SECTION DIMENSION. THE TORSIONAL RIGIDITY MAY NOT BE 
             EVALUATED ACCURATELY SINCE THE CALCULATION IS BASED ON THE 
             ASSUMPTION THAT THE WALL THICKNESS IS MUCH SMALL IN COMPARISON TO 
             THE CROSS SECTION DIMENSION
  *beamsection, elset=ASSEMBLYSUSPENSIONBRIDGE_SUSPENSIONBRIDGE_TOWER_CROSSBEAM_SOUTH_3, material=CONCRETE, section=BOX

 ***WARNING: ONE OR MORE THICKNESS OF THE BOX SECTION IS GREATER THAN 0.1 OF 
             THE CROSS SECTION DIMENSION. THE TORSIONAL RIGIDITY MAY NOT BE 
             EVALUATED ACCURATELY SINCE THE CALCULATION IS BASED ON THE 
             ASSUMPTION THAT THE WALL THICKNESS IS MUCH SMALL IN COMPARISON TO 
             THE CROSS SECTION DIMENSION
  *beamsection, elset=ASSEMBLYSUSPENSIONBRIDGE_SUSPENSIONBRIDGE_TOWER_CROSSBEAM_NORTH_3, material=CONCRETE, section=BOX

 ***WARNING: ONE OR MORE THICKNESS OF THE BOX SECTION IS GREATER THAN 0.1 OF 
             THE CROSS SECTION DIMENSION. THE TORSIONAL RIGIDITY MAY NOT BE 
             EVALUATED ACCURATELY SINCE THE CALCULATION IS BASED ON THE 
             ASSUMPTION THAT THE WALL THICKNESS IS MUCH SMALL IN COMPARISON TO 
             THE CROSS SECTION DIMENSION
  *beamsection, elset=ASSEMBLYSUSPENSIONBRIDGE_SUSPENSIONBRIDGE_TOWER_CROSSBEAM_SOUTH_4, material=CONCRETE, section=BOX

 ***WARNING: ONE OR MORE THICKNESS OF THE BOX SECTION IS GREATER THAN 0.1 OF 
             THE CROSS SECTION DIMENSION. THE TORSIONAL RIGIDITY MAY NOT BE 
             EVALUATED ACCURATELY SINCE THE CALCULATION IS BASED ON THE 
             ASSUMPTION THAT THE WALL THICKNESS IS MUCH SMALL IN COMPARISON TO 
             THE CROSS SECTION DIMENSION
  *beamsection, elset=ASSEMBLYSUSPENSIONBRIDGE_SUSPENSIONBRIDGE_TOWER_CROSSBEAM_NORTH_4, material=CONCRETE, section=BOX

 ***WARNING: ONE OR MORE THICKNESS OF THE BOX SECTION IS GREATER THAN 0.1 OF 
             THE CROSS SECTION DIMENSION. THE TORSIONAL RIGIDITY MAY NOT BE 
             EVALUATED ACCURATELY SINCE THE CALCULATION IS BASED ON THE 
             ASSUMPTION THAT THE WALL THICKNESS IS MUCH SMALL IN COMPARISON TO 
             THE CROSS SECTION DIMENSION
  *beamsection, elset=ASSEMBLYSUSPENSIONBRIDGE_SUSPENSIONBRIDGE_TOWER_CROSSBEAM_SOUTH_5, material=CONCRETE, section=BOX

 ***WARNING: ONE OR MORE THICKNESS OF THE BOX SECTION IS GREATER THAN 0.1 OF 
             THE CROSS SECTION DIMENSION. THE TORSIONAL RIGIDITY MAY NOT BE 
             EVALUATED ACCURATELY SINCE THE CALCULATION IS BASED ON THE 
             ASSUMPTION THAT THE WALL THICKNESS IS MUCH SMALL IN COMPARISON TO 
             THE CROSS SECTION DIMENSION
  *beamsection, elset=ASSEMBLYSUSPENSIONBRIDGE_SUSPENSIONBRIDGE_TOWER_CROSSBEAM_NORTH_5, material=CONCRETE, section=BOX

 ***WARNING: ONE OR MORE THICKNESS OF THE BOX SECTION IS GREATER THAN 0.1 OF 
             THE CROSS SECTION DIMENSION. THE TORSIONAL RIGIDITY MAY NOT BE 
             EVALUATED ACCURATELY SINCE THE CALCULATION IS BASED ON THE 
             ASSUMPTION THAT THE WALL THICKNESS IS MUCH SMALL IN COMPARISON TO 
             THE CROSS SECTION DIMENSION
  *beamsection, elset=ASSEMBLYSUSPENSIONBRIDGE_SUSPENSIONBRIDGE_LATCONNGAP, material=STEEL, section=BOX
  *beamsection, elset=ASSEMBLYSUSPENSIONBRIDGE_SUSPENSIONBRIDGE_BEARINGPENDULUM, material=STEEL, section=BOX
  *beamgeneralsection, elset=ASSEMBLYSUSPENSIONBRIDGE_SUSPENSIONBRIDGE_CABLE_MAIN, density=7850, section=GENERAL
  *beamgeneralsection, elset=ASSEMBLYSUSPENSIONBRIDGE_SUSPENSIONBRIDGE_CABLE_TEMPSUPPORT, density=0, section=GENERAL
  *beamgeneralsection, elset=ASSEMBLYSUSPENSIONBRIDGE_SUSPENSIONBRIDGE_LATCONNOUTER, density=0, section=GENERAL
  *beamgeneralsection, elset=ASSEMBLYSUSPENSIONBRIDGE_SUSPENSIONBRIDGE_BRIDGEDECK1_COG, density=0, section=GENERAL
  *beamaddedinertia
  *beamaddedinertia
  *shearcenter
  *beamgeneralsection, elset=ASSEMBLYSUSPENSIONBRIDGE_SUSPENSIONBRIDGE_BRIDGEDECK2_COG, density=0, section=GENERAL
  *beamaddedinertia
  *beamaddedinertia
  *shearcenter
  *beamgeneralsection, elset=ASSEMBLYSUSPENSIONBRIDGE_SUSPENSIONBRIDGE_LATCONNINNER, density=0, section=GENERAL
  *beamgeneralsection, elset=ASSEMBLYSUSPENSIONBRIDGE_SUSPENSIONBRIDGE_HANGER, density=7850, section=GENERAL
  *beamgeneralsection, elset=ASSEMBLYSUSPENSIONBRIDGE_SUSPENSIONBRIDGE_BEARINGTOP, density=0, section=GENERAL
  *beamgeneralsection, elset=ASSEMBLYSUSPENSIONBRIDGE_SUSPENSIONBRIDGE_BEARINGLOW, density=0, section=GENERAL
  *shellsection, elset=ASSEMBLYSUSPENSIONBRIDGE_SUSPENSIONBRIDGE_BRIDGEDECK_SHELL, material=SOFT, offset=SNEG

 ***ERROR: THE NUMBER OF INTEGRATION POINTS FOR THE SIMPSON RULE MUST BE AN ODD 
           NUMBER
 LINE IMAGE: 0.010, 2
  *spring, elset=ASSEMBLYSUSPENSIONBRIDGE_SUSPENSIONBRIDGE_SADLESPRING_X
  *spring, elset=ASSEMBLYSUSPENSIONBRIDGE_SUSPENSIONBRIDGE_SADLESPRING_Y
  *spring, elset=ASSEMBLYSUSPENSIONBRIDGE_SUSPENSIONBRIDGE_SADLESPRING_Z
  *spring, elset=ASSEMBLYSUSPENSIONBRIDGE_SUSPENSIONBRIDGE_BEARINGSPRING1_SOUTH_X
  *spring, elset=ASSEMBLYSUSPENSIONBRIDGE_SUSPENSIONBRIDGE_BEARINGSPRING1_SOUTH_Y
  *spring, elset=ASSEMBLYSUSPENSIONBRIDGE_SUSPENSIONBRIDGE_BEARINGSPRING1_SOUTH_Z
  *spring, elset=ASSEMBLYSUSPENSIONBRIDGE_SUSPENSIONBRIDGE_BEARINGSPRING1_SOUTH_RX
  *spring, elset=ASSEMBLYSUSPENSIONBRIDGE_SUSPENSIONBRIDGE_BEARINGSPRING1_SOUTH_RY
  *spring, elset=ASSEMBLYSUSPENSIONBRIDGE_SUSPENSIONBRIDGE_BEARINGSPRING1_SOUTH_RZ
  *spring, elset=ASSEMBLYSUSPENSIONBRIDGE_SUSPENSIONBRIDGE_BEARINGSPRING1_NORTH_X
  *spring, elset=ASSEMBLYSUSPENSIONBRIDGE_SUSPENSIONBRIDGE_BEARINGSPRING1_NORTH_Y
  *spring, elset=ASSEMBLYSUSPENSIONBRIDGE_SUSPENSIONBRIDGE_BEARINGSPRING1_NORTH_Z
  *spring, elset=ASSEMBLYSUSPENSIONBRIDGE_SUSPENSIONBRIDGE_BEARINGSPRING1_NORTH_RX
  *spring, elset=ASSEMBLYSUSPENSIONBRIDGE_SUSPENSIONBRIDGE_BEARINGSPRING1_NORTH_RY
  *spring, elset=ASSEMBLYSUSPENSIONBRIDGE_SUSPENSIONBRIDGE_BEARINGSPRING1_NORTH_RZ
  *spring, elset=ASSEMBLYSUSPENSIONBRIDGE_SUSPENSIONBRIDGE_BEARINGSPRING2_SOUTH_X
  *spring, elset=ASSEMBLYSUSPENSIONBRIDGE_SUSPENSIONBRIDGE_BEARINGSPRING2_SOUTH_Y
  *spring, elset=ASSEMBLYSUSPENSIONBRIDGE_SUSPENSIONBRIDGE_BEARINGSPRING2_SOUTH_Z
  *spring, elset=ASSEMBLYSUSPENSIONBRIDGE_SUSPENSIONBRIDGE_BEARINGSPRING2_SOUTH_RX
  *spring, elset=ASSEMBLYSUSPENSIONBRIDGE_SUSPENSIONBRIDGE_BEARINGSPRING2_SOUTH_RY
  *spring, elset=ASSEMBLYSUSPENSIONBRIDGE_SUSPENSIONBRIDGE_BEARINGSPRING2_SOUTH_RZ
  *spring, elset=ASSEMBLYSUSPENSIONBRIDGE_SUSPENSIONBRIDGE_BEARINGSPRING2_NORTH_X
  *spring, elset=ASSEMBLYSUSPENSIONBRIDGE_SUSPENSIONBRIDGE_BEARINGSPRING2_NORTH_Y
  *spring, elset=ASSEMBLYSUSPENSIONBRIDGE_SUSPENSIONBRIDGE_BEARINGSPRING2_NORTH_Z
  *spring, elset=ASSEMBLYSUSPENSIONBRIDGE_SUSPENSIONBRIDGE_BEARINGSPRING2_NORTH_RX
  *spring, elset=ASSEMBLYSUSPENSIONBRIDGE_SUSPENSIONBRIDGE_BEARINGSPRING2_NORTH_RY
  *spring, elset=ASSEMBLYSUSPENSIONBRIDGE_SUSPENSIONBRIDGE_BEARINGSPRING2_NORTH_RZ
  *boundary, op=NEW
  *boundary, op=NEW
  *boundary, op=NEW
  *boundary, op=NEW
  *mpc
  *mpc
  *mpc
  *mpc
  *mpc
  *mpc
  *mpc
  *mpc
  *mpc
  *mpc
  *mpc
  *mpc
  *mpc
  *mpc
  *mpc
  *mpc
  *mpc
  *mpc
  *mpc
  *mpc
  *release
  *release
  *release
  *release
  *output, field, frequency=100
  *output, field, frequency=100
  *output, field, frequency=100
  *output, field, frequency=100
  *output, field, frequency=100
  *output, field, frequency=100
  *output, field, frequency=100
  *output, field, frequency=100
  *output, field
  *output, field
  *elementoutput
  *elementoutput
  *elementoutput
  *elementoutput
  *elementoutput
  *output, field, frequency=100
  *output, field, frequency=100
  *output, field, frequency=100
  *output, field, frequency=100
  *output, field, frequency=100
  *output, field, frequency=100
  *output, field, frequency=100
  *output, field, frequency=100
  *output, field
  *output, field
  *elementoutput
  *elementoutput
  *elementoutput
  *elementoutput
  *elementoutput
  *output, field, frequency=100
  *output, field, frequency=100
  *output, field, frequency=100
  *output, field, frequency=100
  *output, field, frequency=100
  *output, field, frequency=100
  *output, field, frequency=100
  *output, field, frequency=100
  *output, field
  *output, field
  *elementoutput
  *elementoutput
  *elementoutput
  *elementoutput
  *elementoutput
  *Step, nlgeom=YES, name=STEP1
  *output, field, frequency=100
  *output, field, frequency=100
  *Step, nlgeom=YES, name=STEP2
  *output, field, frequency=100
  *output, field, frequency=100
  *Step, nlgeom=YES, name=STEP3
  *output, field, frequency=100
  *output, field, frequency=100
  *Step, nlgeom=YES, name=STEP4
  *output, field, frequency=100
  *output, field, frequency=100
  *Step, name=STEP_MODAL
  *frequency, normalization=DISPLACEMENT, sim=NO
  *output, field
  *output, field
  *Step, nlgeom=YES, name=STEP1
  *Step, nlgeom=YES, name=STEP2
  *Step, nlgeom=YES, name=STEP3
  *Step, nlgeom=YES, name=STEP4
  *Step, name=STEP_MODAL
  *Step, nlgeom=YES, name=STEP1
  *static
  *modelchange, remove
  *modelchange, remove
  *modelchange, remove
  *modelchange, remove
  *modelchange, remove
  *modelchange, remove
  *dload, op=NEW

 ***NOTE: ALL ELEMENTS THAT HAVE MASS ARE COLLECTED IN ELEMENT SET 
          _Whole_Model_Gravity_Elset FOR APPLICATION OF GRAVITY LOAD.
  *boundary, op=NEW
  *output, field, frequency=100
  *nodeoutput
  *output, field, frequency=100
  *elementoutput
  *endstep

 ***WARNING: OUTPUT REQUEST SF IS NOT AVAILABLE FOR ELEMENT TYPE SPRING2

 ***WARNING: OUTPUT REQUEST SF IS NOT AVAILABLE FOR ELEMENT TYPE SPRING2

 ***WARNING: OUTPUT REQUEST SF IS NOT AVAILABLE FOR ELEMENT TYPE SPRING2

 ***WARNING: OUTPUT REQUEST SF IS NOT AVAILABLE FOR ELEMENT TYPE SPRING2

 ***WARNING: OUTPUT REQUEST SF IS NOT AVAILABLE FOR ELEMENT TYPE SPRING2

 ***WARNING: OUTPUT REQUEST SF IS NOT AVAILABLE FOR ELEMENT TYPE SPRING2
  *Step, nlgeom=YES, name=STEP2
  *static
  *modelchange, add
  *modelchange, add
  *modelchange, add
  *modelchange, add
  *dload, op=NEW
  *boundary, op=NEW
  *boundary, op=NEW
  *output, field, frequency=100
  *nodeoutput
  *output, field, frequency=100
  *elementoutput
  *endstep

 ***WARNING: OUTPUT REQUEST SF IS NOT AVAILABLE FOR ELEMENT TYPE SPRING2

 ***WARNING: OUTPUT REQUEST SF IS NOT AVAILABLE FOR ELEMENT TYPE SPRING2

 ***WARNING: OUTPUT REQUEST SF IS NOT AVAILABLE FOR ELEMENT TYPE SPRING2

 ***WARNING: OUTPUT REQUEST SF IS NOT AVAILABLE FOR ELEMENT TYPE SPRING2

 ***WARNING: OUTPUT REQUEST SF IS NOT AVAILABLE FOR ELEMENT TYPE SPRING2

 ***WARNING: OUTPUT REQUEST SF IS NOT AVAILABLE FOR ELEMENT TYPE SPRING2

 ***WARNING: OUTPUT REQUEST S IS NOT AVAILABLE FOR ELEMENT TYPE B31 UNLESS 
             *SECTION POINTS IS SPECIFIED AS PART OF THE *BEAM GENERAL SECTION 
             DEFINITION

 ***WARNING: OUTPUT REQUEST S IS NOT AVAILABLE FOR ELEMENT TYPE B31 UNLESS 
             *SECTION POINTS IS SPECIFIED AS PART OF THE *BEAM GENERAL SECTION 
             DEFINITION

 ***WARNING: OUTPUT REQUEST S IS NOT AVAILABLE FOR ELEMENT TYPE B33 UNLESS 
             *SECTION POINTS IS SPECIFIED AS PART OF THE *BEAM GENERAL SECTION 
             DEFINITION

 ***WARNING: OUTPUT REQUEST S IS NOT AVAILABLE FOR ELEMENT TYPE B31 UNLESS 
             *SECTION POINTS IS SPECIFIED AS PART OF THE *BEAM GENERAL SECTION 
             DEFINITION
  *Step, nlgeom=YES, name=STEP3
  *static
  *modelchange, add
  *modelchange, add
  *modelchange, remove
  *modelchange, remove
  *dload, op=NEW
  *output, field, frequency=100
  *nodeoutput
  *output, field, frequency=100
  *elementoutput
  *endstep

 ***WARNING: OUTPUT REQUEST SF IS NOT AVAILABLE FOR ELEMENT TYPE SPRING2

 ***WARNING: OUTPUT REQUEST SF IS NOT AVAILABLE FOR ELEMENT TYPE SPRING2

 ***WARNING: OUTPUT REQUEST SF IS NOT AVAILABLE FOR ELEMENT TYPE SPRING2

 ***WARNING: OUTPUT REQUEST SF IS NOT AVAILABLE FOR ELEMENT TYPE SPRING2

 ***WARNING: OUTPUT REQUEST SF IS NOT AVAILABLE FOR ELEMENT TYPE SPRING2

 ***WARNING: OUTPUT REQUEST SF IS NOT AVAILABLE FOR ELEMENT TYPE SPRING2

 ***WARNING: OUTPUT REQUEST S IS NOT AVAILABLE FOR ELEMENT TYPE B31 UNLESS 
             *SECTION POINTS IS SPECIFIED AS PART OF THE *BEAM GENERAL SECTION 
             DEFINITION

 ***WARNING: OUTPUT REQUEST S IS NOT AVAILABLE FOR ELEMENT TYPE B31 UNLESS 
             *SECTION POINTS IS SPECIFIED AS PART OF THE *BEAM GENERAL SECTION 
             DEFINITION

 ***WARNING: OUTPUT REQUEST S IS NOT AVAILABLE FOR ELEMENT TYPE B33 UNLESS 
             *SECTION POINTS IS SPECIFIED AS PART OF THE *BEAM GENERAL SECTION 
             DEFINITION

 ***WARNING: OUTPUT REQUEST S IS NOT AVAILABLE FOR ELEMENT TYPE B31 UNLESS 
             *SECTION POINTS IS SPECIFIED AS PART OF THE *BEAM GENERAL SECTION 
             DEFINITION
  *Step, nlgeom=YES, name=STEP4
  *static
  *modelchange, add
  *modelchange, add
  *modelchange, add
  *modelchange, add
  *output, field, frequency=100
  *nodeoutput
  *output, field, frequency=100
  *elementoutput
  *endstep

 ***WARNING: OUTPUT REQUEST SF IS NOT AVAILABLE FOR ELEMENT TYPE SPRING2

 ***WARNING: OUTPUT REQUEST SF IS NOT AVAILABLE FOR ELEMENT TYPE SPRING2

 ***WARNING: OUTPUT REQUEST SF IS NOT AVAILABLE FOR ELEMENT TYPE SPRING2

 ***WARNING: OUTPUT REQUEST SF IS NOT AVAILABLE FOR ELEMENT TYPE SPRING2

 ***WARNING: OUTPUT REQUEST SF IS NOT AVAILABLE FOR ELEMENT TYPE SPRING2

 ***WARNING: OUTPUT REQUEST SF IS NOT AVAILABLE FOR ELEMENT TYPE SPRING2

 ***WARNING: OUTPUT REQUEST S IS NOT AVAILABLE FOR ELEMENT TYPE B31 UNLESS 
             *SECTION POINTS IS SPECIFIED AS PART OF THE *BEAM GENERAL SECTION 
             DEFINITION

 ***WARNING: OUTPUT REQUEST S IS NOT AVAILABLE FOR ELEMENT TYPE B31 UNLESS 
             *SECTION POINTS IS SPECIFIED AS PART OF THE *BEAM GENERAL SECTION 
             DEFINITION

 ***WARNING: OUTPUT REQUEST S IS NOT AVAILABLE FOR ELEMENT TYPE B33 UNLESS 
             *SECTION POINTS IS SPECIFIED AS PART OF THE *BEAM GENERAL SECTION 
             DEFINITION

 ***WARNING: OUTPUT REQUEST S IS NOT AVAILABLE FOR ELEMENT TYPE B31 UNLESS 
             *SECTION POINTS IS SPECIFIED AS PART OF THE *BEAM GENERAL SECTION 
             DEFINITION
  *Step, name=STEP_MODAL
  *frequency, normalization=DISPLACEMENT, sim=NO
  *frequency, normalization=DISPLACEMENT, sim=NO
  *output, field
  *nodeoutput
  *output, field
  *elementoutput
  *endstep

 ***WARNING: THE NLGEOM FLAG IS ACTIVATED BECAUSE IT WAS ACTIVE IN THE PREVIOUS 
             STEP. GEOMETRIC NONLINEARITY IN THE BASE STATE WILL BE CONSIDERED 
             IN THE CURRENT STEP.

 ***WARNING: OUTPUT REQUEST SF IS NOT AVAILABLE FOR ELEMENT TYPE SPRING2

 ***WARNING: OUTPUT REQUEST SF IS NOT AVAILABLE FOR ELEMENT TYPE SPRING2

 ***WARNING: OUTPUT REQUEST SF IS NOT AVAILABLE FOR ELEMENT TYPE SPRING2

 ***WARNING: OUTPUT REQUEST SF IS NOT AVAILABLE FOR ELEMENT TYPE SPRING2

 ***WARNING: OUTPUT REQUEST SF IS NOT AVAILABLE FOR ELEMENT TYPE SPRING2

 ***WARNING: OUTPUT REQUEST SF IS NOT AVAILABLE FOR ELEMENT TYPE SPRING2
  *Step, nlgeom=YES, name=STEP1
  *static
  *cload, op=NEW
  *cload, op=NEW
  *boundary, op=NEW
  *endstep
  *Step, nlgeom=YES, name=STEP2
  *static
  *cload, op=NEW
  *boundary, op=NEW
  *boundary, op=NEW
  *endstep
  *Step, nlgeom=YES, name=STEP3
  *static
  *endstep
  *Step, nlgeom=YES, name=STEP4
  *static
  *endstep
  *Step, name=STEP_MODAL
  *frequency, normalization=DISPLACEMENT, sim=NO
  *frequency, normalization=DISPLACEMENT, sim=NO
  *endstep

 ***WARNING: For 282 beam elements either the average curvature about the local 
             1-direction differs by more than 0.1 degrees per unit length as 
             compared to the default curvature or the approximate integrated 
             curvature for the entire beam differs by more than 5 degrees as 
             compared to the approximate integrated default curvature. This may 
             be due to a user-specified normal or due to the nodal averaging 
             routine used by Abaqus. This difference may cause unexpected 
             behavior of the beam and you may want to verify that the beam 
             normals are correct for your problem. The elements have been 
             identified in element set WarnBeamCurvature1.

 ***WARNING: For 172 beam elements either the average curvature about the beam 
             tangent differs by more than 0.1 degrees per unit length as 
             compared to the default curvature or the approximate integrated 
             curvature for the entire beam differs by more than 5 degrees as 
             compared to the approximate integrated default curvature. This may 
             be due to a user-specified normal or due to the nodal averaging 
             routine used by Abaqus. This difference may cause unexpected 
             behavior of the beam and you may want to verify that the beam 
             normals are correct for your problem. The elements have been 
             identified in element set j_WarnBeamTwist.



                            P R O B L E M   S I Z E


          NUMBER OF ELEMENTS IS                                  3685
          NUMBER OF NODES IS                                     3735
          NUMBER OF NODES DEFINED BY THE USER                    2815
          NUMBER OF INTERNAL NODES GENERATED BY THE PROGRAM       920
          TOTAL NUMBER OF VARIABLES IN THE MODEL                19214
          (DEGREES OF FREEDOM PLUS MAX NO. OF ANY LAGRANGE MULTIPLIER
           VARIABLES. INCLUDE *PRINT,SOLVE=YES TO GET THE ACTUAL NUMBER.)





          THE PROGRAM HAS DISCOVERED     2 FATAL ERRORS

               ** EXECUTION IS TERMINATED **



                              END OF USER INPUT PROCESSING



     JOB TIME SUMMARY
       USER TIME (SEC)      =  0.80000    
       SYSTEM TIME (SEC)    =  0.40000    
       TOTAL CPU TIME (SEC) =   1.2000    
       WALLCLOCK TIME (SEC) =          1
