 Abaqus/Standard 3DEXPERIENCE R2017x                  DATE 10-Apr-2023 TIME 10:24:53
 SUMMARY OF JOB INFORMATION:
 STEP  INC ATT SEVERE EQUIL TOTAL  TOTAL      STEP       INC OF       DOF    IF
               DISCON ITERS ITERS  TIME/    TIME/LPF    TIME/LPF    MONITOR RIKS
               ITERS               FREQ
   1     1   1     0     2     2  0.100      0.100      0.1000    
   1     2   1     0     2     2  0.200      0.200      0.1000    
   1     3   1     0     2     2  0.350      0.350      0.1500    
   1     4   1     0     2     2  0.575      0.575      0.2250    
   1     5   1     0     2     2  0.913      0.913      0.3375    
   1     6   1     0     2     2  1.00       1.00       0.08750   
   2     1   1     0     2     2  1.00       1.00e-008  1.000e-008
   2     2   1     0     1     1  1.00       2.00e-008  1.000e-008
   2     3   1     0     1     1  1.00       3.50e-008  1.500e-008
   2     4   1     0     1     1  1.00       5.75e-008  2.250e-008
   2     5   1     0     1     1  1.00       9.13e-008  3.375e-008
   2     6   1     0     1     1  1.00       1.42e-007  5.063e-008
   2     7   1     0     1     1  1.00       2.18e-007  7.594e-008
   2     8   1     0     1     1  1.00       3.32e-007  1.139e-007
   2     9   1     0     1     1  1.00       5.03e-007  1.709e-007
   2    10   1     0     1     1  1.00       7.59e-007  2.563e-007
   2    11   1     0     1     1  1.00       1.14e-006  3.844e-007
   2    12   1     0     1     1  1.00       1.72e-006  5.767e-007
   2    13   1     0     1     1  1.00       2.58e-006  8.650e-007
   2    14   1     0     1     1  1.00       3.88e-006  1.297e-006
   2    15   1     0     1     1  1.00       5.83e-006  1.946e-006
   2    16   1     0     3     3  1.00       8.75e-006  2.919e-006
   2    17   1     0     2     2  1.00       1.31e-005  4.379e-006
   2    18   1     0     2     2  1.00       1.97e-005  6.568e-006
   2    19   1     0     2     2  1.00       2.95e-005  9.853e-006
   2    20   1     0     2     2  1.00       4.43e-005  1.478e-005
   2    21   1     0     2     2  1.00       6.65e-005  2.217e-005
   2    22   1     0     2     2  1.00       9.97e-005  3.325e-005
   2    23   1     0     2     2  1.00       0.000150   4.988e-005
   2    24   1     0     2     2  1.00       0.000224   7.482e-005
   2    25   1     0     2     2  1.00       0.000337   0.0001122 
   2    26   1     0     2     2  1.00       0.000505   0.0001683 
   2    27   1     0     2     2  1.00       0.000758   0.0002525 
   2    28   1     0     2     2  1.00       0.00114    0.0003788 
   2    29   1     0     2     2  1.00       0.00170    0.0005682 
   2    30   1     0     2     2  1.00       0.00256    0.0008522 
   2    31   1     0     2     2  1.00       0.00384    0.001278  
   2    32   1     0     2     2  1.01       0.00575    0.001918  
   2    33   1     0     2     2  1.01       0.00863    0.002876  
   2    34   1     0     2     2  1.01       0.0129     0.004314  
   2    35   1     0     2     2  1.02       0.0194     0.006472  
   2    36   1     0     3     3  1.03       0.0291     0.009707  
   2    37   1     0     3     3  1.04       0.0437     0.01456   
   2    38   1     0     3     3  1.07       0.0655     0.02184   
   2    39   1     0     3     3  1.10       0.0983     0.03276   
   2    40   1     0     3     3  1.15       0.147      0.04914   
   2    41   1     0     3     3  1.22       0.221      0.07372   
   2    42   1     0     2     2  1.33       0.332      0.1106    
   2    43   1     0     2     2  1.50       0.498      0.1659    
   2    44   1     0     2     2  1.75       0.746      0.2488    
   2    45   1     0     2     2  2.00       1.00       0.2536    
   3     1   1     0     1     1  2.00       1.00e-006  1.000e-006
   3     2   1     0     1     1  2.00       2.00e-006  1.000e-006
   3     3   1     0     1     1  2.00       3.50e-006  1.500e-006
   3     4   1     0     1     1  2.00       5.75e-006  2.250e-006
   3     5   1     0     2     2  2.00       9.12e-006  3.375e-006
   3     6   1     0     1     1  2.00       1.42e-005  5.062e-006
   3     7   1     0     2     2  2.00       2.18e-005  7.594e-006
   3     8   1     0     1     1  2.00       3.32e-005  1.139e-005
   3     9   1     0     1     1  2.00       5.03e-005  1.709e-005
   3    10   1     0     1     1  2.00       7.59e-005  2.563e-005
   3    11   1     0     1     1  2.00       0.000114   3.844e-005
   3    12   1     0     1     1  2.00       0.000172   5.767e-005
   3    13   1     0     1     1  2.00       0.000258   8.650e-005
   3    14   1     0     1     1  2.00       0.000388   0.0001297 
   3    15   1     0     1     1  2.00       0.000583   0.0001946 
   3    16   1     0     1     1  2.00       0.000875   0.0002919 
   3    17   1     0     1     1  2.00       0.00131    0.0004379 
   3    18   1     0     1     1  2.00       0.00197    0.0006568 
   3    19   1     0     1     1  2.00       0.00295    0.0009853 
   3    20   1     0     1     1  2.00       0.00443    0.001478  
   3    21   1     0     1     1  2.01       0.00665    0.002217  
   3    22   1     0     2     2  2.01       0.00997    0.003325  
   3    23   1     0     1     1  2.01       0.0150     0.004988  
   3    24   1     0     1     1  2.02       0.0224     0.007482  
   3    25   1     0     1     1  2.03       0.0337     0.01122   
   3    26   1     0     1     1  2.05       0.0505     0.01683   
   3    27   1     0     2     2  2.08       0.0758     0.02525   
   3    28   1     0     2     2  2.11       0.114      0.03788   
   3    29   1     0     1     1  2.17       0.170      0.05682   
   3    30   1     0     2     2  2.26       0.256      0.08522   
   3    31   1     0     2     2  2.38       0.384      0.1278    
   3    32   1     0     2     2  2.58       0.575      0.1918    
   3    33   1     0     2     2  2.86       0.863      0.2876    
   3    34   1     0     1     1  3.00       1.00       0.1371    
   4     1   1     0     1     1  3.10       0.100      0.1000    
   4     2   1     0     3     3  3.20       0.200      0.1000    
   4     3   1     0     3     3  3.35       0.350      0.1500    
   4     4   1     0     1     1  3.57       0.575      0.2250    
   4     5   1     0     1     1  3.91       0.913      0.3375    
   4     6   1     0     1     1  4.00       1.00       0.08750   
   5     1   1     0     0     0  4.00       1.00e-036  1.000e-036
                          
 THE ANALYSIS HAS COMPLETED SUCCESSFULLY
