1

   Abaqus 3DEXPERIENCE R2017x                                  Date 11-May-2025   Time 21:54:09
   For use by NORGES TEKNISK NATURVITENSKAPELIGE UNIVERSITET under license from Dassault Systemes or its subsidiary.

                                                                                 
                                                                                 
 STEP    1     INCREMENT     1     STEP TIME    0.00    


                        S T E P       1     C A L C U L A T I O N   O F   E I G E N V A L U E S

                                            F O R   N A T U R A L   F R E Q U E N C I E S



                                                                                          

     THE LANCZOS EIGENSOLVER IS USED FOR THIS ANALYSIS
     Abaqus WILL COMPUTE UNCOUPLED
      STRUCTURAL AND ACOUSTIC MODES
     NUMBER OF EIGENVALUES                     20
     HIGHEST FREQUENCY OF INTEREST                  1.00000E+18
     MAXIMUM NUMBER OF STEPS WITHIN RUN               35
     BLOCK SIZE FOR LANCZOS PROCEDURE                  7
     THE EIGENVECTORS ARE SCALED SO THAT 
      THE LARGEST DISPLACEMENT ENTRY IN EACH VECTOR
      IS UNITY

     THIS IS A LINEAR PERTURBATION STEP.
     ALL LOADS ARE DEFINED AS CHANGE IN LOAD TO THE REFERENCE STATE

     EXTRAPOLATION WILL NOT BE USED

     CHARACTERISTIC ELEMENT LENGTH     0.300    

     DETAILS REGARDING ACTUAL SOLUTION WAVEFRONT REQUESTED

     DETAILED OUTPUT OF DIAGNOSTICS TO DATABASE REQUESTED

     PRINT OF INCREMENT NUMBER, TIME, ETC., TO THE MESSAGE FILE EVERY     1  INCREMENTS

     ELEMENT OPERATIONS WILL NOT BE CARRIED OUT IN PARALLEL

     COLLECTING MODEL CONSTRAINT INFORMATION FOR OVERCONSTRAINT CHECKS

     COLLECTING STEP CONSTRAINT INFORMATION FOR OVERCONSTRAINT CHECKS

     CHECK POINT   START OF SOLVER    
  
 COMPUTER PRECISION USED BY ABAQUS      2.22045e-016
 CONVERGENCE CRITERION FOR LANCZOS RUN  1.81899e-012
  
 NUMBER OF EQUATIONS                                                         246
 NUMBER OF UNRESTRAINED DEGREES OF FREEDOM                                   198
 HEURISTIC SCALE FOR THE FIRST NONZERO EIGENVALUES (PROBLEM SCALE)  9.35228e+002
 INITIAL SHIFT VALUE                                                0.00000e+000
  
 NUMBER OF CPUS USED BY DIRECT SOLVER     4
  
 NUMBER OF NEGATIVE EIGENVALUES     0
 NUMBER OF POSITIVE EIGENVALUES   246
 NUMBER OF NEGATIVE EIGENVALUES NOT ASSOCIATED WITH LAGRANGE MULTIPLIERS     0
 NUMBER OF LAGRANGE MULTIPLIERS     0
  
 COMPUTATIONAL INTERVAL FOR THE INITIAL LANCZOS RUN
 
 EIGENVALUES NEEDED TO THE RIGHT OF SHIFT VALUE   20
 EIGENVALUES NEEDED TO THE LEFT OF SHIFT VALUE     0
 RIGHT BOUNDARY OF THE COMPUTATIONAL INTERVAL  3.95574e+037
 LEFT BOUNDARY OF THE COMPUTATIONAL INTERVAL  -3.95574e+037
  
 LANCZOS RUN TERMINATED. NUMBER OF STEPS:   10
 ALL THE EIGENVALUES REQUESTED ON THIS LANCZOS RUN ARE FOUND
  
 NUMBER OF ACCEPTED EIGENVALUES   21
  
 ACCEPTED EIGENVALUES
  4.50436e+002 1.09742e+003 7.18128e+003 1.14582e+004 3.61292e+004 4.93965e+004
  1.09019e+005 1.12981e+005 1.41802e+005 2.62195e+005 2.98709e+005 3.42518e+005
  3.65822e+005 4.44588e+005 5.70009e+005 6.71916e+005 9.77342e+005 1.03654e+006
  1.18567e+006 1.73448e+006 1.93447e+006
  
 FACTORIZATION WITH NEW SHIFT VALUE IS REQUIRED
  
 TRUST INTERVALS AFTER LANCZOS RUN AND COMPRESSION
  
 NUMBER OF TRUST INTERVALS    1
  
 -------------------------------------------------------------------------------------
 | KEY | INSIDE |      INERTIAS     |  SENTINELS  |   OUTSIDE   |  NEED TO FIND      |
 |      ENDS OF INTERVAL     |     ENDS OF SENTINEL      |   COMPUTATIONAL INTERVAL  |
 -------------------------------------------------------------------------------------
 |  +  |      0 |        0        0 |     0     0 |     0     0 |      0    20       |
 |-3.95574e+037 0.00000e+000 |-3.95574e+037 0.00000e+000 |-3.95574e+037 3.95574e+037 |
 -------------------------------------------------------------------------------------
  
 DATA FOR CHOOSING SHIFT
  
 NUMBER OF EIGENVALUES NEEDED IN THE PRIMARY TRUST INTERVAL   20
  
 NUMBER OF MODES FORMING SENTINEL TO THE RIGHT   20
 SHIFT RIGHT        1.75094e+006
  
 NUMBER OF MODES FORMING SENTINEL TO THE LEFT     0
 SHIFT LEFT         0.00000e+000
  
 SHIFTING TO THE RIGHT DIRECTION
 NEW SHIFT          1.75094e+006
  
 NUMBER OF NEGATIVE EIGENVALUES    20
 NUMBER OF POSITIVE EIGENVALUES   226
 NUMBER OF NEGATIVE EIGENVALUES NOT ASSOCIATED WITH LAGRANGE MULTIPLIERS    20
 NUMBER OF LAGRANGE MULTIPLIERS     0
  
 THE REQUIRED NUMBER OF EIGENVALUES IS FOUND
  
 FINAL TRUST INTERVAL
  
 -------------------------------------------------------------------------------------
 | KEY | INSIDE |      INERTIAS     |  SENTINELS  |   OUTSIDE   |  NEED TO FIND      |
 |      ENDS OF INTERVAL     |     ENDS OF SENTINEL      |   COMPUTATIONAL INTERVAL  |
 -------------------------------------------------------------------------------------
 |  +  |     20 |        0       20 |     0     0 |     0     0 |      0     0       |
 |-3.95574e+037 1.75094e+006 |-3.95574e+037 1.75094e+006 |-3.95574e+037 1.75094e+006 |
 -------------------------------------------------------------------------------------
  
 FIRST EIGENVALUE REQUESTED BY THE USER     1
  
 EIGENVALUES REQUESTED BY THE USER
  4.50436e+002 1.09742e+003 7.18128e+003 1.14582e+004 3.61292e+004 4.93965e+004
  1.09019e+005 1.12981e+005 1.41802e+005 2.62195e+005 2.98709e+005 3.42518e+005
  3.65822e+005 4.44588e+005 5.70009e+005 6.71916e+005 9.77342e+005 1.03654e+006
  1.18567e+006 1.73448e+006
  
 EIGENVALUE EXTRACTION USING THE LANCZOS EIGENSOLVER IS COMPLETE
 NUMBER OF LANCZOS RUNS       :   1
 NUMBER OF LANCZOS STEPS      :  10
 NUMBER OF FACTORIZATIONS     :   2
 NUMBER OF BACK SUBSTITUTIONS :  11

     CHECK POINT  END OF SOLVER       

       ELAPSED USER TIME (SEC)      =  0.30000    
       ELAPSED SYSTEM TIME (SEC)    =   0.0000    
       ELAPSED TOTAL CPU TIME (SEC) =  0.30000    
       ELAPSED WALLCLOCK TIME (SEC) =          1
1

   Abaqus 3DEXPERIENCE R2017x                                  Date 11-May-2025   Time 21:54:10
   For use by NORGES TEKNISK NATURVITENSKAPELIGE UNIVERSITET under license from Dassault Systemes or its subsidiary.

                                                                                 
                                                                                 
 STEP    2     INCREMENT     1     STEP TIME    0.00    


                        S T E P       2     S T A T I C   A N A L Y S I S


                                                                                          

     AUTOMATIC TIME CONTROL WITH -
          A SUGGESTED INITIAL TIME INCREMENT OF                1.000E-03
          AND A TOTAL TIME PERIOD OF                            1.00    
          THE MINIMUM TIME INCREMENT ALLOWED IS                1.000E-06
          THE MAXIMUM TIME INCREMENT ALLOWED IS                 1.00    

     LINEAR EQUATION SOLVER TYPE         DIRECT SPARSE

 CONVERGENCE TOLERANCE PARAMETERS FOR FORCE    
     CRITERION FOR RESIDUAL FORCE     FOR A NONLINEAR PROBLEM          5.000E-03
     CRITERION FOR DISP.    CORRECTION IN A NONLINEAR PROBLEM          1.000E-02
     INIT. VALUE OF TIME AVG. FORCE     IS TIME AVG. FORCE     IN PREVIOUS STEP
     AVERAGE FORCE     IS TIME AVERAGE FORCE    
     ALTERNATE CRIT. FOR RESIDUAL FORCE     FOR A NONLINEAR PROBLEM    2.000E-02
     CRITERION FOR ZERO FORCE     RELATIVE TO TIME AVRG. FORCE         1.000E-05
     CRITERION FOR RESIDUAL FORCE     WHEN THERE IS ZERO FLUX          1.000E-05
     CRITERION FOR DISP.    CORRECTION WHEN THERE IS ZERO FLUX         1.000E-03
     CRITERION FOR RESIDUAL FORCE     FOR A LINEAR INCREMENT           1.000E-08
     FIELD CONVERSION RATIO                                             1.00    
     CRITERION FOR ZERO FORCE     REL. TO TIME AVRG. MAX. FORCE        1.000E-05
     CRITERION FOR ZERO DISP.    RELATIVE TO CHARACTERISTIC LENGTH     1.000E-08

 CONVERGENCE TOLERANCE PARAMETERS FOR MOMENT   
     CRITERION FOR RESIDUAL MOMENT    FOR A NONLINEAR PROBLEM          5.000E-03
     CRITERION FOR ROTATION CORRECTION IN A NONLINEAR PROBLEM          1.000E-02
     INIT. VALUE OF TIME AVG. MOMENT    IS TIME AVG. MOMENT    IN PREVIOUS STEP
     AVERAGE MOMENT    IS TIME AVERAGE MOMENT   
     ALTERNATE CRIT. FOR RESIDUAL MOMENT    FOR A NONLINEAR PROBLEM    2.000E-02
     CRITERION FOR ZERO MOMENT    RELATIVE TO TIME AVRG. MOMENT        1.000E-05
     CRITERION FOR RESIDUAL MOMENT    WHEN THERE IS ZERO FLUX          1.000E-05
     CRITERION FOR ROTATION CORRECTION WHEN THERE IS ZERO FLUX         1.000E-03
     CRITERION FOR RESIDUAL MOMENT    FOR A LINEAR INCREMENT           1.000E-08
     FIELD CONVERSION RATIO                                             1.00    
     CRITERION FOR ZERO MOMENT    REL. TO TIME AVRG. MAX. MOMENT       1.000E-05

     VOLUMETRIC STRAIN COMPATIBILITY TOLERANCE FOR HYBRID SOLIDS       1.000E-05
     AXIAL STRAIN COMPATIBILITY TOLERANCE FOR HYBRID BEAMS             1.000E-05
     TRANS. SHEAR STRAIN COMPATIBILITY TOLERANCE FOR HYBRID BEAMS      1.000E-05
     SOFT CONTACT CONSTRAINT COMPATIBILITY TOLERANCE FOR P>P0          5.000E-03
     SOFT CONTACT CONSTRAINT COMPATIBILITY TOLERANCE FOR P=0.0         0.100    
     CONTACT FORCE ERROR TOLERANCE FOR CONVERT SDI=YES                 1.00    
     DISPLACEMENT COMPATIBILITY TOLERANCE FOR DCOUP ELEMENTS           1.000E-05
     ROTATION COMPATIBILITY TOLERANCE FOR DCOUP ELEMENTS               1.000E-05

 EQUILIBRIUM WILL BE CHECKED FOR SEVERE DISCONTINUITY ITERATIONS

 TIME INCREMENTATION CONTROL PARAMETERS:
     FIRST EQUILIBRIUM ITERATION FOR CONSECUTIVE DIVERGENCE CHECK              4
     EQUILIBRIUM ITERATION AT WHICH LOG. CONVERGENCE RATE CHECK BEGINS         8
     EQUILIBRIUM ITERATION AFTER WHICH ALTERNATE RESIDUAL IS USED              9
     MAXIMUM EQUILIBRIUM ITERATIONS ALLOWED                                   16
     EQUILIBRIUM ITERATION COUNT FOR CUT-BACK IN NEXT INCREMENT               10
     MAXIMUM EQUILIB. ITERS IN TWO INCREMENTS FOR TIME INCREMENT INCREASE      4
     MAXIMUM ITERATIONS FOR SEVERE DISCONTINUITIES                            50
     MAXIMUM ATTEMPTS ALLOWED IN AN INCREMENT                                  5
     MAXIMUM DISCON. ITERS IN TWO INCREMENTS FOR TIME INCREMENT INCREASE      50
     MAXIMUM CONTACT AUGMENTATIONS FOR *SURFACE BEHAVIOR,AUGMENTED LAGRANGE   50
     CUT-BACK FACTOR AFTER DIVERGENCE                                 0.2500    
     CUT-BACK FACTOR FOR TOO SLOW CONVERGENCE                         0.5000    
     CUT-BACK FACTOR AFTER TOO MANY EQUILIBRIUM ITERATIONS            0.7500    
     CUT-BACK FACTOR AFTER TOO MANY SEVERE DISCONTINUITY ITERATIONS   0.2500    
     CUT-BACK FACTOR AFTER PROBLEMS IN ELEMENT ASSEMBLY               0.2500    
     INCREASE FACTOR AFTER TWO INCREMENTS THAT CONVERGE QUICKLY        1.500    
     MAX. TIME INCREMENT INCREASE FACTOR ALLOWED                       1.500    
     MAX. TIME INCREMENT INCREASE FACTOR ALLOWED (DYNAMICS)            1.250    
     MAX. TIME INCREMENT INCREASE FACTOR ALLOWED (DIFFUSION)           2.000    
     MINIMUM TIME INCREMENT RATIO FOR EXTRAPOLATION TO OCCUR          0.1000    
     MAX. RATIO OF TIME INCREMENT TO STABILITY LIMIT                   1.000    
     FRACTION OF STABILITY LIMIT FOR NEW TIME INCREMENT               0.9500    
     TIME INCREMENT INCREASE FACTOR BEFORE A TIME POINT                1.000    
     GLOBAL STABILIZATION CONTROL IS NOT USED

          PRINT OF INCREMENT NUMBER, TIME, ETC., EVERY    1  INCREMENTS

     THE MAXIMUM NUMBER OF INCREMENTS IN THIS STEP IS                     100

     LINEAR EXTRAPOLATION WILL BE USED

     CHARACTERISTIC ELEMENT LENGTH     0.300    

     DETAILS REGARDING ACTUAL SOLUTION WAVEFRONT REQUESTED

     DETAILED OUTPUT OF DIAGNOSTICS TO DATABASE REQUESTED

     PRINT OF INCREMENT NUMBER, TIME, ETC., TO THE MESSAGE FILE EVERY     1  INCREMENTS

     ELEMENT OPERATIONS WILL NOT BE CARRIED OUT IN PARALLEL

     COLLECTING STEP CONSTRAINT INFORMATION FOR OVERCONSTRAINT CHECKS


  INCREMENT     1 STARTS. ATTEMPT NUMBER  1, TIME INCREMENT  1.000E-03

  NUMBER OF EQUATIONS =       246     NUMBER OF FLOATING PT. OPERATIONS =  5.08E+04

  USING THE DIRECT SOLVER WITH   4 PROCESSORS

     CHECK POINT   START OF SOLVER    

     CHECK POINT  END OF SOLVER       

       ELAPSED USER TIME (SEC)      =  0.10000    
       ELAPSED SYSTEM TIME (SEC)    =   0.0000    
       ELAPSED TOTAL CPU TIME (SEC) =  0.10000    
       ELAPSED WALLCLOCK TIME (SEC) =          0

               CONVERGENCE CHECKS FOR EQUILIBRIUM ITERATION     1


 AVERAGE FORCE                      2.108E-06   TIME AVG. FORCE       2.108E-06
 LARGEST RESIDUAL FORCE            -1.406E-17   AT NODE       2015   DOF  1
   INSTANCE: PART_FRAME                                                                      
 LARGEST INCREMENT OF DISP.        -4.792E-10   AT NODE       2012   DOF  1
   INSTANCE: PART_FRAME                                                                      
 LARGEST CORRECTION TO DISP.       -4.792E-10   AT NODE       2012   DOF  1
   INSTANCE: PART_FRAME                                                                      
          THE FORCE     EQUILIBRIUM RESPONSE WAS LINEAR IN THIS INCREMENT

 AVERAGE MOMENT                     3.817E-06   TIME AVG. MOMENT      3.817E-06
 LARGEST RESIDUAL MOMENT            1.142E-18   AT NODE       2012   DOF  5
   INSTANCE: PART_FRAME                                                                      
 LARGEST INCREMENT OF ROTATION     -2.730E-10   AT NODE       2021   DOF  5
   INSTANCE: PART_FRAME                                                                      
 LARGEST CORRECTION TO ROTATION    -2.730E-10   AT NODE       2021   DOF  5
   INSTANCE: PART_FRAME                                                                      
          THE MOMENT    EQUILIBRIUM RESPONSE WAS LINEAR IN THIS INCREMENT

 ITERATION SUMMARY FOR THE INCREMENT:   1 TOTAL ITERATIONS, OF WHICH
   0 ARE SEVERE DISCONTINUITY ITERATIONS AND  1 ARE EQUILIBRIUM ITERATIONS.

 TIME INCREMENT COMPLETED  1.000E-03,  FRACTION OF STEP COMPLETED  1.000E-03
 STEP TIME COMPLETED       1.000E-03,  TOTAL TIME COMPLETED        1.000E-03


  INCREMENT     2 STARTS. ATTEMPT NUMBER  1, TIME INCREMENT  1.000E-03

  NUMBER OF EQUATIONS =       246     NUMBER OF FLOATING PT. OPERATIONS =  5.08E+04

  USING THE DIRECT SOLVER WITH   4 PROCESSORS

     CHECK POINT   START OF SOLVER    

     CHECK POINT  END OF SOLVER       

       ELAPSED USER TIME (SEC)      =  0.10000    
       ELAPSED SYSTEM TIME (SEC)    =   0.0000    
       ELAPSED TOTAL CPU TIME (SEC) =  0.10000    
       ELAPSED WALLCLOCK TIME (SEC) =          0

               CONVERGENCE CHECKS FOR EQUILIBRIUM ITERATION     1


 AVERAGE FORCE                      1.518E-05   TIME AVG. FORCE       8.642E-06
 LARGEST RESIDUAL FORCE            -1.650E-17   AT NODE       2013   DOF  1
   INSTANCE: PART_FRAME                                                                      
 LARGEST INCREMENT OF DISP.        -4.792E-10   AT NODE       2012   DOF  1
   INSTANCE: PART_FRAME                                                                      
 LARGEST CORRECTION TO DISP.       -1.302E-21   AT NODE       2011   DOF  1
   INSTANCE: PART_FRAME                                                                      
          THE FORCE     EQUILIBRIUM RESPONSE WAS LINEAR IN THIS INCREMENT

 AVERAGE MOMENT                     2.349E-05   TIME AVG. MOMENT      1.365E-05
 LARGEST RESIDUAL MOMENT           -2.528E-18   AT NODE       2016   DOF  5
   INSTANCE: PART_FRAME                                                                      
 LARGEST INCREMENT OF ROTATION     -2.730E-10   AT NODE       2021   DOF  5
   INSTANCE: PART_FRAME                                                                      
 LARGEST CORRECTION TO ROTATION    -6.697E-22   AT NODE       2021   DOF  5
   INSTANCE: PART_FRAME                                                                      
          THE MOMENT    EQUILIBRIUM RESPONSE WAS LINEAR IN THIS INCREMENT
          TIME INCREMENT MAY NOW INCREASE TO    1.500E-03

 ITERATION SUMMARY FOR THE INCREMENT:   1 TOTAL ITERATIONS, OF WHICH
   0 ARE SEVERE DISCONTINUITY ITERATIONS AND  1 ARE EQUILIBRIUM ITERATIONS.

 TIME INCREMENT COMPLETED  1.000E-03,  FRACTION OF STEP COMPLETED  2.000E-03
 STEP TIME COMPLETED       2.000E-03,  TOTAL TIME COMPLETED        2.000E-03


  INCREMENT     3 STARTS. ATTEMPT NUMBER  1, TIME INCREMENT  1.500E-03

  NUMBER OF EQUATIONS =       246     NUMBER OF FLOATING PT. OPERATIONS =  5.08E+04

  USING THE DIRECT SOLVER WITH   4 PROCESSORS

     CHECK POINT   START OF SOLVER    

     CHECK POINT  END OF SOLVER       

       ELAPSED USER TIME (SEC)      =  0.10000    
       ELAPSED SYSTEM TIME (SEC)    =   0.0000    
       ELAPSED TOTAL CPU TIME (SEC) =  0.10000    
       ELAPSED WALLCLOCK TIME (SEC) =          0

               CONVERGENCE CHECKS FOR EQUILIBRIUM ITERATION     1


 AVERAGE FORCE                      2.656E-05   TIME AVG. FORCE       1.461E-05
 LARGEST RESIDUAL FORCE            -3.255E-17   AT NODE       2016   DOF  1
   INSTANCE: PART_FRAME                                                                      
 LARGEST INCREMENT OF DISP.        -7.188E-10   AT NODE       2012   DOF  1
   INSTANCE: PART_FRAME                                                                      
 LARGEST CORRECTION TO DISP.        9.767E-22   AT NODE       2011   DOF  1
   INSTANCE: PART_FRAME                                                                      
          THE FORCE     EQUILIBRIUM RESPONSE WAS LINEAR IN THIS INCREMENT

 AVERAGE MOMENT                     4.111E-05   TIME AVG. MOMENT      2.281E-05
 LARGEST RESIDUAL MOMENT           -3.673E-18   AT NODE       2012   DOF  5
   INSTANCE: PART_FRAME                                                                      
 LARGEST INCREMENT OF ROTATION     -4.095E-10   AT NODE       2021   DOF  5
   INSTANCE: PART_FRAME                                                                      
 LARGEST CORRECTION TO ROTATION     5.025E-22   AT NODE       2021   DOF  5
   INSTANCE: PART_FRAME                                                                      
          THE MOMENT    EQUILIBRIUM RESPONSE WAS LINEAR IN THIS INCREMENT
          TIME INCREMENT MAY NOW INCREASE TO    2.250E-03

 ITERATION SUMMARY FOR THE INCREMENT:   1 TOTAL ITERATIONS, OF WHICH
   0 ARE SEVERE DISCONTINUITY ITERATIONS AND  1 ARE EQUILIBRIUM ITERATIONS.

 TIME INCREMENT COMPLETED  1.500E-03,  FRACTION OF STEP COMPLETED  3.500E-03
 STEP TIME COMPLETED       3.500E-03,  TOTAL TIME COMPLETED        3.500E-03


  INCREMENT     4 STARTS. ATTEMPT NUMBER  1, TIME INCREMENT  2.250E-03

  NUMBER OF EQUATIONS =       246     NUMBER OF FLOATING PT. OPERATIONS =  5.08E+04

  USING THE DIRECT SOLVER WITH   4 PROCESSORS

     CHECK POINT   START OF SOLVER    

     CHECK POINT  END OF SOLVER       

       ELAPSED USER TIME (SEC)      =   0.0000    
       ELAPSED SYSTEM TIME (SEC)    =   0.0000    
       ELAPSED TOTAL CPU TIME (SEC) =   0.0000    
       ELAPSED WALLCLOCK TIME (SEC) =          0

               CONVERGENCE CHECKS FOR EQUILIBRIUM ITERATION     1


 AVERAGE FORCE                      4.363E-05   TIME AVG. FORCE       2.187E-05
 LARGEST RESIDUAL FORCE            -8.166E-17   AT NODE       2014   DOF  1
   INSTANCE: PART_FRAME                                                                      
 LARGEST INCREMENT OF DISP.        -1.078E-09   AT NODE       2012   DOF  1
   INSTANCE: PART_FRAME                                                                      
 LARGEST CORRECTION TO DISP.        1.115E-24   AT NODE       2011   DOF  1
   INSTANCE: PART_FRAME                                                                      
          THE FORCE     EQUILIBRIUM RESPONSE WAS LINEAR IN THIS INCREMENT

 AVERAGE MOMENT                     6.754E-05   TIME AVG. MOMENT      3.399E-05
 LARGEST RESIDUAL MOMENT           -8.430E-18   AT NODE       2013   DOF  5
   INSTANCE: PART_FRAME                                                                      
 LARGEST INCREMENT OF ROTATION     -6.143E-10   AT NODE       2021   DOF  5
   INSTANCE: PART_FRAME                                                                      
 LARGEST CORRECTION TO ROTATION    -3.739E-25   AT NODE       2018   DOF  5
   INSTANCE: PART_FRAME                                                                      
          THE MOMENT    EQUILIBRIUM RESPONSE WAS LINEAR IN THIS INCREMENT
          TIME INCREMENT MAY NOW INCREASE TO    3.375E-03

 ITERATION SUMMARY FOR THE INCREMENT:   1 TOTAL ITERATIONS, OF WHICH
   0 ARE SEVERE DISCONTINUITY ITERATIONS AND  1 ARE EQUILIBRIUM ITERATIONS.

 TIME INCREMENT COMPLETED  2.250E-03,  FRACTION OF STEP COMPLETED  5.750E-03
 STEP TIME COMPLETED       5.750E-03,  TOTAL TIME COMPLETED        5.750E-03


  INCREMENT     5 STARTS. ATTEMPT NUMBER  1, TIME INCREMENT  3.375E-03

  NUMBER OF EQUATIONS =       246     NUMBER OF FLOATING PT. OPERATIONS =  5.08E+04

  USING THE DIRECT SOLVER WITH   4 PROCESSORS

     CHECK POINT   START OF SOLVER    

     CHECK POINT  END OF SOLVER       

       ELAPSED USER TIME (SEC)      =  0.10000    
       ELAPSED SYSTEM TIME (SEC)    =   0.0000    
       ELAPSED TOTAL CPU TIME (SEC) =  0.10000    
       ELAPSED WALLCLOCK TIME (SEC) =          0

               CONVERGENCE CHECKS FOR EQUILIBRIUM ITERATION     1


 AVERAGE FORCE                      6.924E-05   TIME AVG. FORCE       3.134E-05
 LARGEST RESIDUAL FORCE             1.397E-16   AT NODE       2014   DOF  1
   INSTANCE: PART_FRAME                                                                      
 LARGEST INCREMENT OF DISP.        -1.617E-09   AT NODE       2012   DOF  1
   INSTANCE: PART_FRAME                                                                      
 LARGEST CORRECTION TO DISP.       -3.562E-24   AT NODE       2014   DOF  1
   INSTANCE: PART_FRAME                                                                      
          THE FORCE     EQUILIBRIUM RESPONSE WAS LINEAR IN THIS INCREMENT

 AVERAGE MOMENT                     1.072E-04   TIME AVG. MOMENT      4.863E-05
 LARGEST RESIDUAL MOMENT            1.393E-17   AT NODE       2013   DOF  5
   INSTANCE: PART_FRAME                                                                      
 LARGEST INCREMENT OF ROTATION     -9.214E-10   AT NODE       2021   DOF  5
   INSTANCE: PART_FRAME                                                                      
 LARGEST CORRECTION TO ROTATION    -1.395E-24   AT NODE       2021   DOF  5
   INSTANCE: PART_FRAME                                                                      
          THE MOMENT    EQUILIBRIUM RESPONSE WAS LINEAR IN THIS INCREMENT
          TIME INCREMENT MAY NOW INCREASE TO    5.063E-03

 ITERATION SUMMARY FOR THE INCREMENT:   1 TOTAL ITERATIONS, OF WHICH
   0 ARE SEVERE DISCONTINUITY ITERATIONS AND  1 ARE EQUILIBRIUM ITERATIONS.

 TIME INCREMENT COMPLETED  3.375E-03,  FRACTION OF STEP COMPLETED  9.125E-03
 STEP TIME COMPLETED       9.125E-03,  TOTAL TIME COMPLETED        9.125E-03


  INCREMENT     6 STARTS. ATTEMPT NUMBER  1, TIME INCREMENT  5.063E-03

  NUMBER OF EQUATIONS =       246     NUMBER OF FLOATING PT. OPERATIONS =  5.08E+04

  USING THE DIRECT SOLVER WITH   4 PROCESSORS

     CHECK POINT   START OF SOLVER    

     CHECK POINT  END OF SOLVER       

       ELAPSED USER TIME (SEC)      =   0.0000    
       ELAPSED SYSTEM TIME (SEC)    =  0.10000    
       ELAPSED TOTAL CPU TIME (SEC) =  0.10000    
       ELAPSED WALLCLOCK TIME (SEC) =          0

               CONVERGENCE CHECKS FOR EQUILIBRIUM ITERATION     1


 AVERAGE FORCE                      1.077E-04   TIME AVG. FORCE       4.406E-05
 LARGEST RESIDUAL FORCE            -1.789E-16   AT NODE       2009   DOF  1
   INSTANCE: PART_FRAME                                                                      
 LARGEST INCREMENT OF DISP.        -2.426E-09   AT NODE       2012   DOF  1
   INSTANCE: PART_FRAME                                                                      
 LARGEST CORRECTION TO DISP.        5.189E-24   AT NODE       2014   DOF  1
   INSTANCE: PART_FRAME                                                                      
          THE FORCE     EQUILIBRIUM RESPONSE WAS LINEAR IN THIS INCREMENT

 AVERAGE MOMENT                     1.666E-04   TIME AVG. MOMENT      6.830E-05
 LARGEST RESIDUAL MOMENT            1.870E-17   AT NODE       2007   DOF  5
   INSTANCE: PART_FRAME                                                                      
 LARGEST INCREMENT OF ROTATION     -1.382E-09   AT NODE       2021   DOF  5
   INSTANCE: PART_FRAME                                                                      
 LARGEST CORRECTION TO ROTATION    -1.603E-24   AT NODE       2002   DOF  5
   INSTANCE: PART_FRAME                                                                      
          THE MOMENT    EQUILIBRIUM RESPONSE WAS LINEAR IN THIS INCREMENT
          TIME INCREMENT MAY NOW INCREASE TO    7.594E-03

 ITERATION SUMMARY FOR THE INCREMENT:   1 TOTAL ITERATIONS, OF WHICH
   0 ARE SEVERE DISCONTINUITY ITERATIONS AND  1 ARE EQUILIBRIUM ITERATIONS.

 TIME INCREMENT COMPLETED  5.063E-03,  FRACTION OF STEP COMPLETED  1.419E-02
 STEP TIME COMPLETED       1.419E-02,  TOTAL TIME COMPLETED        1.419E-02


  INCREMENT     7 STARTS. ATTEMPT NUMBER  1, TIME INCREMENT  7.594E-03

  NUMBER OF EQUATIONS =       246     NUMBER OF FLOATING PT. OPERATIONS =  5.08E+04

  USING THE DIRECT SOLVER WITH   4 PROCESSORS

     CHECK POINT   START OF SOLVER    

     CHECK POINT  END OF SOLVER       

       ELAPSED USER TIME (SEC)      =  0.10000    
       ELAPSED SYSTEM TIME (SEC)    =   0.0000    
       ELAPSED TOTAL CPU TIME (SEC) =  0.10000    
       ELAPSED WALLCLOCK TIME (SEC) =          0

               CONVERGENCE CHECKS FOR EQUILIBRIUM ITERATION     1


 AVERAGE FORCE                      1.653E-04   TIME AVG. FORCE       6.138E-05
 LARGEST RESIDUAL FORCE             1.417E-16   AT NODE       2013   DOF  1
   INSTANCE: PART_FRAME                                                                      
 LARGEST INCREMENT OF DISP.        -3.639E-09   AT NODE       2012   DOF  1
   INSTANCE: PART_FRAME                                                                      
 LARGEST CORRECTION TO DISP.       -6.735E-24   AT NODE       2014   DOF  1
   INSTANCE: PART_FRAME                                                                      
          THE FORCE     EQUILIBRIUM RESPONSE WAS LINEAR IN THIS INCREMENT

 AVERAGE MOMENT                     2.558E-04   TIME AVG. MOMENT      9.509E-05
 LARGEST RESIDUAL MOMENT           -2.342E-17   AT NODE       2014   DOF  5
   INSTANCE: PART_FRAME                                                                      
 LARGEST INCREMENT OF ROTATION     -2.073E-09   AT NODE       2021   DOF  5
   INSTANCE: PART_FRAME                                                                      
 LARGEST CORRECTION TO ROTATION     1.654E-24   AT NODE       2001   DOF  5
   INSTANCE: PART_FRAME                                                                      
          THE MOMENT    EQUILIBRIUM RESPONSE WAS LINEAR IN THIS INCREMENT
          TIME INCREMENT MAY NOW INCREASE TO    1.139E-02

 ITERATION SUMMARY FOR THE INCREMENT:   1 TOTAL ITERATIONS, OF WHICH
   0 ARE SEVERE DISCONTINUITY ITERATIONS AND  1 ARE EQUILIBRIUM ITERATIONS.

 TIME INCREMENT COMPLETED  7.594E-03,  FRACTION OF STEP COMPLETED  2.178E-02
 STEP TIME COMPLETED       2.178E-02,  TOTAL TIME COMPLETED        2.178E-02


  INCREMENT     8 STARTS. ATTEMPT NUMBER  1, TIME INCREMENT  1.139E-02

  NUMBER OF EQUATIONS =       246     NUMBER OF FLOATING PT. OPERATIONS =  5.08E+04

  USING THE DIRECT SOLVER WITH   4 PROCESSORS

     CHECK POINT   START OF SOLVER    

     CHECK POINT  END OF SOLVER       

       ELAPSED USER TIME (SEC)      =   0.0000    
       ELAPSED SYSTEM TIME (SEC)    =   0.0000    
       ELAPSED TOTAL CPU TIME (SEC) =   0.0000    
       ELAPSED WALLCLOCK TIME (SEC) =          0

               CONVERGENCE CHECKS FOR EQUILIBRIUM ITERATION     1


 AVERAGE FORCE                      2.517E-04   TIME AVG. FORCE       8.517E-05
 LARGEST RESIDUAL FORCE            -2.901E-16   AT NODE       2010   DOF  1
   INSTANCE: PART_FRAME                                                                      
 LARGEST INCREMENT OF DISP.        -5.458E-09   AT NODE       2012   DOF  1
   INSTANCE: PART_FRAME                                                                      
 LARGEST CORRECTION TO DISP.        9.656E-24   AT NODE       2011   DOF  1
   INSTANCE: PART_FRAME                                                                      
          THE FORCE     EQUILIBRIUM RESPONSE WAS LINEAR IN THIS INCREMENT

 AVERAGE MOMENT                     3.896E-04   TIME AVG. MOMENT      1.319E-04
 LARGEST RESIDUAL MOMENT           -2.808E-17   AT NODE       2015   DOF  5
   INSTANCE: PART_FRAME                                                                      
 LARGEST INCREMENT OF ROTATION     -3.110E-09   AT NODE       2021   DOF  5
   INSTANCE: PART_FRAME                                                                      
 LARGEST CORRECTION TO ROTATION    -3.434E-24   AT NODE       1021   DOF  5
   INSTANCE: PART_FRAME                                                                      
          THE MOMENT    EQUILIBRIUM RESPONSE WAS LINEAR IN THIS INCREMENT
          TIME INCREMENT MAY NOW INCREASE TO    1.709E-02

 ITERATION SUMMARY FOR THE INCREMENT:   1 TOTAL ITERATIONS, OF WHICH
   0 ARE SEVERE DISCONTINUITY ITERATIONS AND  1 ARE EQUILIBRIUM ITERATIONS.

 TIME INCREMENT COMPLETED  1.139E-02,  FRACTION OF STEP COMPLETED  3.317E-02
 STEP TIME COMPLETED       3.317E-02,  TOTAL TIME COMPLETED        3.317E-02


  INCREMENT     9 STARTS. ATTEMPT NUMBER  1, TIME INCREMENT  1.709E-02

  NUMBER OF EQUATIONS =       246     NUMBER OF FLOATING PT. OPERATIONS =  5.08E+04

  USING THE DIRECT SOLVER WITH   4 PROCESSORS

     CHECK POINT   START OF SOLVER    

     CHECK POINT  END OF SOLVER       

       ELAPSED USER TIME (SEC)      =   0.0000    
       ELAPSED SYSTEM TIME (SEC)    =   0.0000    
       ELAPSED TOTAL CPU TIME (SEC) =   0.0000    
       ELAPSED WALLCLOCK TIME (SEC) =          0

               CONVERGENCE CHECKS FOR EQUILIBRIUM ITERATION     1


 AVERAGE FORCE                      3.814E-04   TIME AVG. FORCE       1.181E-04
 LARGEST RESIDUAL FORCE            -9.124E-16   AT NODE       2013   DOF  1
   INSTANCE: PART_FRAME                                                                      
 LARGEST INCREMENT OF DISP.        -8.187E-09   AT NODE       2012   DOF  1
   INSTANCE: PART_FRAME                                                                      
 LARGEST CORRECTION TO DISP.       -2.089E-23   AT NODE       2010   DOF  1
   INSTANCE: PART_FRAME                                                                      
          THE FORCE     EQUILIBRIUM RESPONSE WAS LINEAR IN THIS INCREMENT

 AVERAGE MOMENT                     5.903E-04   TIME AVG. MOMENT      1.828E-04
 LARGEST RESIDUAL MOMENT            7.763E-17   AT NODE       2009   DOF  5
   INSTANCE: PART_FRAME                                                                      
 LARGEST INCREMENT OF ROTATION     -4.664E-09   AT NODE       2021   DOF  5
   INSTANCE: PART_FRAME                                                                      
 LARGEST CORRECTION TO ROTATION    -6.776E-24   AT NODE       2020   DOF  5
   INSTANCE: PART_FRAME                                                                      
          THE MOMENT    EQUILIBRIUM RESPONSE WAS LINEAR IN THIS INCREMENT
          TIME INCREMENT MAY NOW INCREASE TO    2.563E-02

 ITERATION SUMMARY FOR THE INCREMENT:   1 TOTAL ITERATIONS, OF WHICH
   0 ARE SEVERE DISCONTINUITY ITERATIONS AND  1 ARE EQUILIBRIUM ITERATIONS.

 TIME INCREMENT COMPLETED  1.709E-02,  FRACTION OF STEP COMPLETED  5.026E-02
 STEP TIME COMPLETED       5.026E-02,  TOTAL TIME COMPLETED        5.026E-02


  INCREMENT    10 STARTS. ATTEMPT NUMBER  1, TIME INCREMENT  2.563E-02

  NUMBER OF EQUATIONS =       246     NUMBER OF FLOATING PT. OPERATIONS =  5.08E+04

  USING THE DIRECT SOLVER WITH   4 PROCESSORS

     CHECK POINT   START OF SOLVER    

     CHECK POINT  END OF SOLVER       

       ELAPSED USER TIME (SEC)      =   0.0000    
       ELAPSED SYSTEM TIME (SEC)    =  0.10000    
       ELAPSED TOTAL CPU TIME (SEC) =  0.10000    
       ELAPSED WALLCLOCK TIME (SEC) =          0

               CONVERGENCE CHECKS FOR EQUILIBRIUM ITERATION     1


 AVERAGE FORCE                      5.758E-04   TIME AVG. FORCE       1.639E-04
 LARGEST RESIDUAL FORCE             1.021E-15   AT NODE       2011   DOF  1
   INSTANCE: PART_FRAME                                                                      
 LARGEST INCREMENT OF DISP.        -1.228E-08   AT NODE       2012   DOF  1
   INSTANCE: PART_FRAME                                                                      
 LARGEST CORRECTION TO DISP.        3.683E-23   AT NODE       2009   DOF  1
   INSTANCE: PART_FRAME                                                                      
          THE FORCE     EQUILIBRIUM RESPONSE WAS LINEAR IN THIS INCREMENT

 AVERAGE MOMENT                     8.914E-04   TIME AVG. MOMENT      2.537E-04
 LARGEST RESIDUAL MOMENT            1.169E-16   AT NODE       2010   DOF  5
   INSTANCE: PART_FRAME                                                                      
 LARGEST INCREMENT OF ROTATION     -6.997E-09   AT NODE       2021   DOF  5
   INSTANCE: PART_FRAME                                                                      
 LARGEST CORRECTION TO ROTATION     1.070E-23   AT NODE       2021   DOF  5
   INSTANCE: PART_FRAME                                                                      
          THE MOMENT    EQUILIBRIUM RESPONSE WAS LINEAR IN THIS INCREMENT
          TIME INCREMENT MAY NOW INCREASE TO    3.844E-02

 ITERATION SUMMARY FOR THE INCREMENT:   1 TOTAL ITERATIONS, OF WHICH
   0 ARE SEVERE DISCONTINUITY ITERATIONS AND  1 ARE EQUILIBRIUM ITERATIONS.

 TIME INCREMENT COMPLETED  2.563E-02,  FRACTION OF STEP COMPLETED  7.589E-02
 STEP TIME COMPLETED       7.589E-02,  TOTAL TIME COMPLETED        7.589E-02


  INCREMENT    11 STARTS. ATTEMPT NUMBER  1, TIME INCREMENT  3.844E-02

  NUMBER OF EQUATIONS =       246     NUMBER OF FLOATING PT. OPERATIONS =  5.08E+04

  USING THE DIRECT SOLVER WITH   4 PROCESSORS

     CHECK POINT   START OF SOLVER    

     CHECK POINT  END OF SOLVER       

       ELAPSED USER TIME (SEC)      =  0.10000    
       ELAPSED SYSTEM TIME (SEC)    =   0.0000    
       ELAPSED TOTAL CPU TIME (SEC) =  0.10000    
       ELAPSED WALLCLOCK TIME (SEC) =          0

               CONVERGENCE CHECKS FOR EQUILIBRIUM ITERATION     1


 AVERAGE FORCE                      8.675E-04   TIME AVG. FORCE       2.278E-04
 LARGEST RESIDUAL FORCE            -1.601E-15   AT NODE       2012   DOF  1
   INSTANCE: PART_FRAME                                                                      
 LARGEST INCREMENT OF DISP.        -1.842E-08   AT NODE       2012   DOF  1
   INSTANCE: PART_FRAME                                                                      
 LARGEST CORRECTION TO DISP.       -2.746E-23   AT NODE       1013   DOF  3
   INSTANCE: PART_FRAME                                                                      
          THE FORCE     EQUILIBRIUM RESPONSE WAS LINEAR IN THIS INCREMENT

 AVERAGE MOMENT                     1.343E-03   TIME AVG. MOMENT      3.527E-04
 LARGEST RESIDUAL MOMENT            1.123E-16   AT NODE       2013   DOF  5
   INSTANCE: PART_FRAME                                                                      
 LARGEST INCREMENT OF ROTATION     -1.050E-08   AT NODE       2021   DOF  5
   INSTANCE: PART_FRAME                                                                      
 LARGEST CORRECTION TO ROTATION    -7.657E-24   AT NODE       2002   DOF  5
   INSTANCE: PART_FRAME                                                                      
          THE MOMENT    EQUILIBRIUM RESPONSE WAS LINEAR IN THIS INCREMENT
          TIME INCREMENT MAY NOW INCREASE TO    5.767E-02

 ITERATION SUMMARY FOR THE INCREMENT:   1 TOTAL ITERATIONS, OF WHICH
   0 ARE SEVERE DISCONTINUITY ITERATIONS AND  1 ARE EQUILIBRIUM ITERATIONS.

 TIME INCREMENT COMPLETED  3.844E-02,  FRACTION OF STEP COMPLETED  0.114    
 STEP TIME COMPLETED       0.114    ,  TOTAL TIME COMPLETED        0.114    


  INCREMENT    12 STARTS. ATTEMPT NUMBER  1, TIME INCREMENT  5.767E-02

  NUMBER OF EQUATIONS =       246     NUMBER OF FLOATING PT. OPERATIONS =  5.08E+04

  USING THE DIRECT SOLVER WITH   4 PROCESSORS

     CHECK POINT   START OF SOLVER    

     CHECK POINT  END OF SOLVER       

       ELAPSED USER TIME (SEC)      =   0.0000    
       ELAPSED SYSTEM TIME (SEC)    =   0.0000    
       ELAPSED TOTAL CPU TIME (SEC) =   0.0000    
       ELAPSED WALLCLOCK TIME (SEC) =          0

               CONVERGENCE CHECKS FOR EQUILIBRIUM ITERATION     1


 AVERAGE FORCE                      1.305E-03   TIME AVG. FORCE       3.176E-04
 LARGEST RESIDUAL FORCE             2.660E-15   AT NODE       2014   DOF  1
   INSTANCE: PART_FRAME                                                                      
 LARGEST INCREMENT OF DISP.        -2.763E-08   AT NODE       2012   DOF  1
   INSTANCE: PART_FRAME                                                                      
 LARGEST CORRECTION TO DISP.       -5.410E-23   AT NODE       2008   DOF  1
   INSTANCE: PART_FRAME                                                                      
          THE FORCE     EQUILIBRIUM RESPONSE WAS LINEAR IN THIS INCREMENT

 AVERAGE MOMENT                     2.020E-03   TIME AVG. MOMENT      4.917E-04
 LARGEST RESIDUAL MOMENT            2.325E-16   AT NODE       2013   DOF  5
   INSTANCE: PART_FRAME                                                                      
 LARGEST INCREMENT OF ROTATION     -1.574E-08   AT NODE       2021   DOF  5
   INSTANCE: PART_FRAME                                                                      
 LARGEST CORRECTION TO ROTATION    -1.761E-23   AT NODE       2015   DOF  5
   INSTANCE: PART_FRAME                                                                      
          THE MOMENT    EQUILIBRIUM RESPONSE WAS LINEAR IN THIS INCREMENT
          TIME INCREMENT MAY NOW INCREASE TO    8.650E-02

 ITERATION SUMMARY FOR THE INCREMENT:   1 TOTAL ITERATIONS, OF WHICH
   0 ARE SEVERE DISCONTINUITY ITERATIONS AND  1 ARE EQUILIBRIUM ITERATIONS.

 TIME INCREMENT COMPLETED  5.767E-02,  FRACTION OF STEP COMPLETED  0.172    
 STEP TIME COMPLETED       0.172    ,  TOTAL TIME COMPLETED        0.172    


  INCREMENT    13 STARTS. ATTEMPT NUMBER  1, TIME INCREMENT  8.650E-02

  NUMBER OF EQUATIONS =       246     NUMBER OF FLOATING PT. OPERATIONS =  5.08E+04

  USING THE DIRECT SOLVER WITH   4 PROCESSORS

     CHECK POINT   START OF SOLVER    

     CHECK POINT  END OF SOLVER       

       ELAPSED USER TIME (SEC)      =   0.0000    
       ELAPSED SYSTEM TIME (SEC)    =   0.0000    
       ELAPSED TOTAL CPU TIME (SEC) =   0.0000    
       ELAPSED WALLCLOCK TIME (SEC) =          0

               CONVERGENCE CHECKS FOR EQUILIBRIUM ITERATION     1


 AVERAGE FORCE                      1.961E-03   TIME AVG. FORCE       4.441E-04
 LARGEST RESIDUAL FORCE             2.348E-15   AT NODE       2017   DOF  1
   INSTANCE: PART_FRAME                                                                      
 LARGEST INCREMENT OF DISP.        -4.145E-08   AT NODE       2012   DOF  1
   INSTANCE: PART_FRAME                                                                      
 LARGEST CORRECTION TO DISP.        5.392E-23   AT NODE       2007   DOF  1
   INSTANCE: PART_FRAME                                                                      
          THE FORCE     EQUILIBRIUM RESPONSE WAS LINEAR IN THIS INCREMENT

 AVERAGE MOMENT                     3.036E-03   TIME AVG. MOMENT      6.874E-04
 LARGEST RESIDUAL MOMENT            3.773E-16   AT NODE       2008   DOF  5
   INSTANCE: PART_FRAME                                                                      
 LARGEST INCREMENT OF ROTATION     -2.361E-08   AT NODE       2021   DOF  5
   INSTANCE: PART_FRAME                                                                      
 LARGEST CORRECTION TO ROTATION     2.416E-23   AT NODE       2020   DOF  5
   INSTANCE: PART_FRAME                                                                      
          THE MOMENT    EQUILIBRIUM RESPONSE WAS LINEAR IN THIS INCREMENT
          TIME INCREMENT MAY NOW INCREASE TO    0.130    

 ITERATION SUMMARY FOR THE INCREMENT:   1 TOTAL ITERATIONS, OF WHICH
   0 ARE SEVERE DISCONTINUITY ITERATIONS AND  1 ARE EQUILIBRIUM ITERATIONS.

 TIME INCREMENT COMPLETED  8.650E-02,  FRACTION OF STEP COMPLETED  0.258    
 STEP TIME COMPLETED       0.258    ,  TOTAL TIME COMPLETED        0.258    


  INCREMENT    14 STARTS. ATTEMPT NUMBER  1, TIME INCREMENT  0.130    

  NUMBER OF EQUATIONS =       246     NUMBER OF FLOATING PT. OPERATIONS =  5.08E+04

  USING THE DIRECT SOLVER WITH   4 PROCESSORS

     CHECK POINT   START OF SOLVER    

     CHECK POINT  END OF SOLVER       

       ELAPSED USER TIME (SEC)      =   0.0000    
       ELAPSED SYSTEM TIME (SEC)    =   0.0000    
       ELAPSED TOTAL CPU TIME (SEC) =   0.0000    
       ELAPSED WALLCLOCK TIME (SEC) =          0

               CONVERGENCE CHECKS FOR EQUILIBRIUM ITERATION     1


 AVERAGE FORCE                      2.946E-03   TIME AVG. FORCE       6.228E-04
 LARGEST RESIDUAL FORCE            -3.078E-15   AT NODE       2011   DOF  1
   INSTANCE: PART_FRAME                                                                      
 LARGEST INCREMENT OF DISP.        -6.217E-08   AT NODE       2012   DOF  1
   INSTANCE: PART_FRAME                                                                      
 LARGEST CORRECTION TO DISP.        1.450E-22   AT NODE       2011   DOF  1
   INSTANCE: PART_FRAME                                                                      
          THE FORCE     EQUILIBRIUM RESPONSE WAS LINEAR IN THIS INCREMENT

 AVERAGE MOMENT                     4.560E-03   TIME AVG. MOMENT      9.640E-04
 LARGEST RESIDUAL MOMENT           -4.701E-16   AT NODE       2010   DOF  5
   INSTANCE: PART_FRAME                                                                      
 LARGEST INCREMENT OF ROTATION     -3.542E-08   AT NODE       2021   DOF  5
   INSTANCE: PART_FRAME                                                                      
 LARGEST CORRECTION TO ROTATION    -5.635E-23   AT NODE       2004   DOF  5
   INSTANCE: PART_FRAME                                                                      
          THE MOMENT    EQUILIBRIUM RESPONSE WAS LINEAR IN THIS INCREMENT
          TIME INCREMENT MAY NOW INCREASE TO    0.195    

 ITERATION SUMMARY FOR THE INCREMENT:   1 TOTAL ITERATIONS, OF WHICH
   0 ARE SEVERE DISCONTINUITY ITERATIONS AND  1 ARE EQUILIBRIUM ITERATIONS.

 TIME INCREMENT COMPLETED  0.130    ,  FRACTION OF STEP COMPLETED  0.388    
 STEP TIME COMPLETED       0.388    ,  TOTAL TIME COMPLETED        0.388    


  INCREMENT    15 STARTS. ATTEMPT NUMBER  1, TIME INCREMENT  0.195    

  NUMBER OF EQUATIONS =       246     NUMBER OF FLOATING PT. OPERATIONS =  5.08E+04

  USING THE DIRECT SOLVER WITH   4 PROCESSORS

     CHECK POINT   START OF SOLVER    

     CHECK POINT  END OF SOLVER       

       ELAPSED USER TIME (SEC)      =  0.10000    
       ELAPSED SYSTEM TIME (SEC)    =   0.0000    
       ELAPSED TOTAL CPU TIME (SEC) =  0.10000    
       ELAPSED WALLCLOCK TIME (SEC) =          0

               CONVERGENCE CHECKS FOR EQUILIBRIUM ITERATION     1


 AVERAGE FORCE                      4.423E-03   TIME AVG. FORCE       8.761E-04
 LARGEST RESIDUAL FORCE             6.253E-15   AT NODE       2009   DOF  1
   INSTANCE: PART_FRAME                                                                      
 LARGEST INCREMENT OF DISP.        -9.326E-08   AT NODE       2012   DOF  1
   INSTANCE: PART_FRAME                                                                      
 LARGEST CORRECTION TO DISP.       -1.099E-22   AT NODE       2010   DOF  1
   INSTANCE: PART_FRAME                                                                      
          THE FORCE     EQUILIBRIUM RESPONSE WAS LINEAR IN THIS INCREMENT

 AVERAGE MOMENT                     6.846E-03   TIME AVG. MOMENT      1.356E-03
 LARGEST RESIDUAL MOMENT           -7.459E-16   AT NODE       2010   DOF  5
   INSTANCE: PART_FRAME                                                                      
 LARGEST INCREMENT OF ROTATION     -5.313E-08   AT NODE       2021   DOF  5
   INSTANCE: PART_FRAME                                                                      
 LARGEST CORRECTION TO ROTATION     5.663E-23   AT NODE       2007   DOF  5
   INSTANCE: PART_FRAME                                                                      
          THE MOMENT    EQUILIBRIUM RESPONSE WAS LINEAR IN THIS INCREMENT
          TIME INCREMENT MAY NOW INCREASE TO    0.292    

 ITERATION SUMMARY FOR THE INCREMENT:   1 TOTAL ITERATIONS, OF WHICH
   0 ARE SEVERE DISCONTINUITY ITERATIONS AND  1 ARE EQUILIBRIUM ITERATIONS.

 TIME INCREMENT COMPLETED  0.195    ,  FRACTION OF STEP COMPLETED  0.583    
 STEP TIME COMPLETED       0.583    ,  TOTAL TIME COMPLETED        0.583    


  INCREMENT    16 STARTS. ATTEMPT NUMBER  1, TIME INCREMENT  0.292    

  NUMBER OF EQUATIONS =       246     NUMBER OF FLOATING PT. OPERATIONS =  5.08E+04

  USING THE DIRECT SOLVER WITH   4 PROCESSORS

     CHECK POINT   START OF SOLVER    

     CHECK POINT  END OF SOLVER       

       ELAPSED USER TIME (SEC)      =   0.0000    
       ELAPSED SYSTEM TIME (SEC)    =   0.0000    
       ELAPSED TOTAL CPU TIME (SEC) =   0.0000    
       ELAPSED WALLCLOCK TIME (SEC) =          0

               CONVERGENCE CHECKS FOR EQUILIBRIUM ITERATION     1


 AVERAGE FORCE                      6.638E-03   TIME AVG. FORCE       1.236E-03
 LARGEST RESIDUAL FORCE             9.597E-15   AT NODE       2016   DOF  1
   INSTANCE: PART_FRAME                                                                      
 LARGEST INCREMENT OF DISP.        -1.399E-07   AT NODE       2012   DOF  1
   INSTANCE: PART_FRAME                                                                      
 LARGEST CORRECTION TO DISP.       -4.077E-22   AT NODE       2012   DOF  1
   INSTANCE: PART_FRAME                                                                      
          THE FORCE     EQUILIBRIUM RESPONSE WAS LINEAR IN THIS INCREMENT

 AVERAGE MOMENT                     1.028E-02   TIME AVG. MOMENT      1.914E-03
 LARGEST RESIDUAL MOMENT           -1.520E-15   AT NODE       2010   DOF  5
   INSTANCE: PART_FRAME                                                                      
 LARGEST INCREMENT OF ROTATION     -7.970E-08   AT NODE       2021   DOF  5
   INSTANCE: PART_FRAME                                                                      
 LARGEST CORRECTION TO ROTATION    -2.026E-22   AT NODE       2020   DOF  5
   INSTANCE: PART_FRAME                                                                      
          THE MOMENT    EQUILIBRIUM RESPONSE WAS LINEAR IN THIS INCREMENT

 ITERATION SUMMARY FOR THE INCREMENT:   1 TOTAL ITERATIONS, OF WHICH
   0 ARE SEVERE DISCONTINUITY ITERATIONS AND  1 ARE EQUILIBRIUM ITERATIONS.

 TIME INCREMENT COMPLETED  0.292    ,  FRACTION OF STEP COMPLETED  0.875    
 STEP TIME COMPLETED       0.875    ,  TOTAL TIME COMPLETED        0.875    


  INCREMENT    17 STARTS. ATTEMPT NUMBER  1, TIME INCREMENT  0.125    

  NUMBER OF EQUATIONS =       246     NUMBER OF FLOATING PT. OPERATIONS =  5.08E+04

  USING THE DIRECT SOLVER WITH   4 PROCESSORS

     CHECK POINT   START OF SOLVER    

     CHECK POINT  END OF SOLVER       

       ELAPSED USER TIME (SEC)      =   0.0000    
       ELAPSED SYSTEM TIME (SEC)    =   0.0000    
       ELAPSED TOTAL CPU TIME (SEC) =   0.0000    
       ELAPSED WALLCLOCK TIME (SEC) =          0

               CONVERGENCE CHECKS FOR EQUILIBRIUM ITERATION     1


 AVERAGE FORCE                      7.588E-03   TIME AVG. FORCE       1.610E-03
 LARGEST RESIDUAL FORCE            -1.087E-14   AT NODE       2017   DOF  1
   INSTANCE: PART_FRAME                                                                      
 LARGEST INCREMENT OF DISP.        -6.000E-08   AT NODE       2012   DOF  1
   INSTANCE: PART_FRAME                                                                      
 LARGEST CORRECTION TO DISP.       -1.530E-22   AT NODE       1014   DOF  3
   INSTANCE: PART_FRAME                                                                      
          THE FORCE     EQUILIBRIUM RESPONSE WAS LINEAR IN THIS INCREMENT

 AVERAGE MOMENT                     1.175E-02   TIME AVG. MOMENT      2.492E-03
 LARGEST RESIDUAL MOMENT           -1.003E-15   AT NODE       2016   DOF  5
   INSTANCE: PART_FRAME                                                                      
 LARGEST INCREMENT OF ROTATION     -3.418E-08   AT NODE       2021   DOF  5
   INSTANCE: PART_FRAME                                                                      
 LARGEST CORRECTION TO ROTATION     9.702E-23   AT NODE       2021   DOF  5
   INSTANCE: PART_FRAME                                                                      
          THE MOMENT    EQUILIBRIUM RESPONSE WAS LINEAR IN THIS INCREMENT

 ITERATION SUMMARY FOR THE INCREMENT:   1 TOTAL ITERATIONS, OF WHICH
   0 ARE SEVERE DISCONTINUITY ITERATIONS AND  1 ARE EQUILIBRIUM ITERATIONS.

 TIME INCREMENT COMPLETED  0.125    ,  FRACTION OF STEP COMPLETED   1.00    
 STEP TIME COMPLETED        1.00    ,  TOTAL TIME COMPLETED         1.00    
1

   Abaqus 3DEXPERIENCE R2017x                                  Date 11-May-2025   Time 21:54:11
   For use by NORGES TEKNISK NATURVITENSKAPELIGE UNIVERSITET under license from Dassault Systemes or its subsidiary.

                                                                                 
                                                                                 
 STEP    3     INCREMENT     1     STEP TIME    0.00    


                        S T E P       3     C A L C U L A T I O N   O F   E I G E N V A L U E S

                                            F O R   B U C K L I N G   P R E D I C T I O N



                                                                                          

     THE LANCZOS EIGENSOLVER IS USED FOR THIS ANALYSIS
     Abaqus WILL COMPUTE UNCOUPLED
      STRUCTURAL AND ACOUSTIC MODES
     NUMBER OF EIGENVALUES                     10
     MAXIMUM NUMBER OF STEPS WITHIN RUN               30
     BLOCK SIZE FOR LANCZOS PROCEDURE                  7
                              ONLY INITIAL STRESS EFFECTS ARE INCLUDED IN THE
                              STIFFNESS MATRIX

     THIS IS A LINEAR PERTURBATION STEP.
     ALL LOADS ARE DEFINED AS CHANGE IN LOAD TO THE REFERENCE STATE

     EXTRAPOLATION WILL NOT BE USED

     CHARACTERISTIC ELEMENT LENGTH     0.300    

     DETAILS REGARDING ACTUAL SOLUTION WAVEFRONT REQUESTED

     DETAILED OUTPUT OF DIAGNOSTICS TO DATABASE REQUESTED

     PRINT OF INCREMENT NUMBER, TIME, ETC., TO THE MESSAGE FILE EVERY     1  INCREMENTS

     ELEMENT OPERATIONS WILL NOT BE CARRIED OUT IN PARALLEL

  NUMBER OF EQUATIONS =       246     NUMBER OF FLOATING PT. OPERATIONS =  5.08E+04

  USING THE DIRECT SOLVER WITH   4 PROCESSORS

     CHECK POINT   START OF SOLVER    

     CHECK POINT  END OF SOLVER       

       ELAPSED USER TIME (SEC)      =   0.0000    
       ELAPSED SYSTEM TIME (SEC)    =   0.0000    
       ELAPSED TOTAL CPU TIME (SEC) =   0.0000    
       ELAPSED WALLCLOCK TIME (SEC) =          0

     CHECK POINT   START OF SOLVER    
  
 COMPUTER PRECISION USED BY ABAQUS      2.22045e-016
 CONVERGENCE CRITERION FOR LANCZOS RUN  1.81899e-012
  
 NUMBER OF EQUATIONS                                                         246
 NUMBER OF UNRESTRAINED DEGREES OF FREEDOM                                   174
 HEURISTIC SCALE FOR THE FIRST NONZERO EIGENVALUES (PROBLEM SCALE)  1.19515e+001
 INITIAL SHIFT VALUE                                               -1.19515e+001
  
 NUMBER OF CPUS USED BY DIRECT SOLVER     4
  
 NUMBER OF NEGATIVE EIGENVALUES     0
 NUMBER OF POSITIVE EIGENVALUES   246
 NUMBER OF NEGATIVE EIGENVALUES NOT ASSOCIATED WITH LAGRANGE MULTIPLIERS     0
 NUMBER OF LAGRANGE MULTIPLIERS     0
  
 COMPUTATIONAL INTERVAL FOR THE INITIAL LANCZOS RUN
 
 EIGENVALUES NEEDED TO THE RIGHT OF SHIFT VALUE   10
 EIGENVALUES NEEDED TO THE LEFT OF SHIFT VALUE    10
 RIGHT BOUNDARY OF THE COMPUTATIONAL INTERVAL  2.69124e+016
 LEFT BOUNDARY OF THE COMPUTATIONAL INTERVAL  -2.69124e+016
  
 LANCZOS RUN TERMINATED. NUMBER OF STEPS:   16
 ALL THE EIGENVALUES FOUND ON THE FIRST RUN
  
 NUMBER OF ACCEPTED EIGENVALUES   18
  
 ACCEPTED EIGENVALUES
 -1.07356e+002-1.02295e+002-9.64473e+001-8.76092e+001-8.03426e+001-7.42967e+001
 -6.92187e+001-6.49224e+001-6.12684e+001 2.82643e+000 9.12524e+000 1.94325e+001
  3.40252e+001 5.31683e+001 6.12684e+001 6.49224e+001 6.92187e+001 7.42967e+001
  
 FACTORIZATION WITH NEW SHIFT VALUE IS REQUIRED
  
 TRUST INTERVALS AFTER LANCZOS RUN AND COMPRESSION
  
 NUMBER OF TRUST INTERVALS    1
  
 -------------------------------------------------------------------------------------
 | KEY | INSIDE |      INERTIAS     |  SENTINELS  |   OUTSIDE   |  NEED TO FIND      |
 |      ENDS OF INTERVAL     |     ENDS OF SENTINEL      |   COMPUTATIONAL INTERVAL  |
 -------------------------------------------------------------------------------------
 |  +  |      0 |        0        0 |     0     0 |     0     0 |      9     9       |
 |-1.19515e+001 0.00000e+000 |-1.19515e+001 0.00000e+000 |-2.69124e+016 2.69124e+016 |
 -------------------------------------------------------------------------------------
  
 DATA FOR CHOOSING SHIFT
  
 NUMBER OF EIGENVALUES NEEDED IN THE PRIMARY TRUST INTERVAL   10
  
 NUMBER OF MODES FORMING SENTINEL TO THE RIGHT    9
 SHIFT RIGHT        7.57289e+001
  
 NUMBER OF MODES FORMING SENTINEL TO THE LEFT     9
 SHIFT LEFT        -1.12349e+002
  
 SHIFTING TO THE RIGHT DIRECTION
 NEW SHIFT          7.57289e+001
  
 NUMBER OF NEGATIVE EIGENVALUES     9
 NUMBER OF POSITIVE EIGENVALUES   237
 NUMBER OF NEGATIVE EIGENVALUES NOT ASSOCIATED WITH LAGRANGE MULTIPLIERS     9
 NUMBER OF LAGRANGE MULTIPLIERS     0
  
 LANCZOS RUN FOR THIS SHIFT IS NOT REQUIRED
  
 TRUST INTERVALS AFTER FACTORIZATION AND COMPRESSION
  
 -------------------------------------------------------------------------------------
 | KEY | INSIDE |      INERTIAS     |  SENTINELS  |   OUTSIDE   |  NEED TO FIND      |
 |      ENDS OF INTERVAL     |     ENDS OF SENTINEL      |   COMPUTATIONAL INTERVAL  |
 -------------------------------------------------------------------------------------
 |  +  |      9 |        0        9 |     9     0 |     9     0 |      9     0       |
 |-1.19515e+001 7.57289e+001 |-1.07356e+002 7.57289e+001 |-2.69124e+016 7.57289e+001 |
 -------------------------------------------------------------------------------------
  
 SHIFTING TO THE LEFT DIRECTION
 NEW SHIFT         -1.12349e+002
  
 NUMBER OF NEGATIVE EIGENVALUES     9
 NUMBER OF POSITIVE EIGENVALUES   237
 NUMBER OF NEGATIVE EIGENVALUES NOT ASSOCIATED WITH LAGRANGE MULTIPLIERS     9
 NUMBER OF LAGRANGE MULTIPLIERS     0
  
 THE REQUIRED NUMBER OF EIGENVALUES IS FOUND
  
 FINAL TRUST INTERVAL
  
 -------------------------------------------------------------------------------------
 | KEY | INSIDE |      INERTIAS     |  SENTINELS  |   OUTSIDE   |  NEED TO FIND      |
 |      ENDS OF INTERVAL     |     ENDS OF SENTINEL      |   COMPUTATIONAL INTERVAL  |
 -------------------------------------------------------------------------------------
 |  +  |     18 |       -9        9 |     0     0 |     0     0 |      0     0       |
 |-1.12349e+002 7.57289e+001 |-1.12349e+002 7.57289e+001 |-1.12349e+002 7.57289e+001 |
 -------------------------------------------------------------------------------------
  
 FIRST EIGENVALUE REQUESTED BY THE USER     8
 THERE ARE MORE EIGENVALUES IN THE SPECIFIED RANGE THAN REQUESTED
  
 EIGENVALUES REQUESTED BY THE USER
  2.82643e+000 9.12524e+000 1.94325e+001 3.40252e+001 5.31683e+001 6.12684e+001
 -6.12684e+001 6.49224e+001-6.49224e+001 6.92187e+001
  
 EIGENVALUE EXTRACTION USING THE LANCZOS EIGENSOLVER IS COMPLETE
 NUMBER OF LANCZOS RUNS       :   1
 NUMBER OF LANCZOS STEPS      :  16
 NUMBER OF FACTORIZATIONS     :   3
 NUMBER OF BACK SUBSTITUTIONS :  17

     CHECK POINT  END OF SOLVER       

       ELAPSED USER TIME (SEC)      =  0.60000    
       ELAPSED SYSTEM TIME (SEC)    =  0.10000    
       ELAPSED TOTAL CPU TIME (SEC) =  0.70000    
       ELAPSED WALLCLOCK TIME (SEC) =          0


          THE ANALYSIS HAS BEEN COMPLETED



     ANALYSIS SUMMARY:
     TOTAL OF         19  INCREMENTS
                       0  CUTBACKS IN AUTOMATIC INCREMENTATION
                      18  ITERATIONS INCLUDING CONTACT ITERATIONS IF PRESENT
                      50  PASSES THROUGH THE EQUATION SOLVER OF WHICH 
                       6  INVOLVE MATRIX DECOMPOSITION, INCLUDING
                       0  DECOMPOSITION(S) OF THE MASS MATRIX
                       1  REORDERING OF EQUATIONS TO MINIMIZE WAVEFRONT
                       0  ADDITIONAL RESIDUAL EVALUATIONS FOR LINE SEARCHES
                       0  ADDITIONAL OPERATOR EVALUATIONS FOR LINE SEARCHES
                       9  WARNING MESSAGES DURING USER INPUT PROCESSING
                       0  WARNING MESSAGES DURING ANALYSIS
                       0  ANALYSIS WARNINGS ARE NUMERICAL PROBLEM MESSAGES
                       0  ANALYSIS WARNINGS ARE NEGATIVE EIGENVALUE MESSAGES
                       0  ERROR MESSAGES



     JOB TIME SUMMARY
       USER TIME (SEC)      =   2.2000    
       SYSTEM TIME (SEC)    =  0.50000    
       TOTAL CPU TIME (SEC) =   2.7000    
       WALLCLOCK TIME (SEC) =          3
