1

   Abaqus 3DEXPERIENCE R2017x                                  Date 10-Apr-2023   Time 10:31:48
   For use by NTNU NORGES TEKNISK NATURVITENSKAPELIGE UNIVERSITET under license from Dassault Systemes or its subsidiary.

                                                                                 
                                                                                 
 STEP    1     INCREMENT     1     STEP TIME    0.00    


                        S T E P       1     S T A T I C   A N A L Y S I S


                                                                                          

     AUTOMATIC TIME CONTROL WITH -
          A SUGGESTED INITIAL TIME INCREMENT OF                0.100    
          AND A TOTAL TIME PERIOD OF                            1.00    
          THE MINIMUM TIME INCREMENT ALLOWED IS                1.000E-06
          THE MAXIMUM TIME INCREMENT ALLOWED IS                 1.00    

     LINEAR EQUATION SOLVER TYPE         DIRECT SPARSE

 CONVERGENCE TOLERANCE PARAMETERS FOR FORCE    
     CRITERION FOR RESIDUAL FORCE     FOR A NONLINEAR PROBLEM          5.000E-03
     CRITERION FOR DISP.    CORRECTION IN A NONLINEAR PROBLEM          1.000E-02
     INITIAL VALUE OF TIME AVERAGE FORCE                               1.000E-02
     AVERAGE FORCE     IS TIME AVERAGE FORCE    
     ALTERNATE CRIT. FOR RESIDUAL FORCE     FOR A NONLINEAR PROBLEM    2.000E-02
     CRITERION FOR ZERO FORCE     RELATIVE TO TIME AVRG. FORCE         1.000E-05
     CRITERION FOR RESIDUAL FORCE     WHEN THERE IS ZERO FLUX          1.000E-05
     CRITERION FOR DISP.    CORRECTION WHEN THERE IS ZERO FLUX         1.000E-03
     CRITERION FOR RESIDUAL FORCE     FOR A LINEAR INCREMENT           1.000E-08
     FIELD CONVERSION RATIO                                             1.00    
     CRITERION FOR ZERO FORCE     REL. TO TIME AVRG. MAX. FORCE        1.000E-05
     CRITERION FOR ZERO DISP.    RELATIVE TO CHARACTERISTIC LENGTH     1.000E-08

 CONVERGENCE TOLERANCE PARAMETERS FOR MOMENT   
     CRITERION FOR RESIDUAL MOMENT    FOR A NONLINEAR PROBLEM          5.000E-03
     CRITERION FOR ROTATION CORRECTION IN A NONLINEAR PROBLEM          1.000E-02
     INITIAL VALUE OF TIME AVERAGE MOMENT                              1.000E-02
     AVERAGE MOMENT    IS TIME AVERAGE MOMENT   
     ALTERNATE CRIT. FOR RESIDUAL MOMENT    FOR A NONLINEAR PROBLEM    2.000E-02
     CRITERION FOR ZERO MOMENT    RELATIVE TO TIME AVRG. MOMENT        1.000E-05
     CRITERION FOR RESIDUAL MOMENT    WHEN THERE IS ZERO FLUX          1.000E-05
     CRITERION FOR ROTATION CORRECTION WHEN THERE IS ZERO FLUX         1.000E-03
     CRITERION FOR RESIDUAL MOMENT    FOR A LINEAR INCREMENT           1.000E-08
     FIELD CONVERSION RATIO                                             1.00    
     CRITERION FOR ZERO MOMENT    REL. TO TIME AVRG. MAX. MOMENT       1.000E-05

     VOLUMETRIC STRAIN COMPATIBILITY TOLERANCE FOR HYBRID SOLIDS       1.000E-05
     AXIAL STRAIN COMPATIBILITY TOLERANCE FOR HYBRID BEAMS             1.000E-05
     TRANS. SHEAR STRAIN COMPATIBILITY TOLERANCE FOR HYBRID BEAMS      1.000E-05
     SOFT CONTACT CONSTRAINT COMPATIBILITY TOLERANCE FOR P>P0          5.000E-03
     SOFT CONTACT CONSTRAINT COMPATIBILITY TOLERANCE FOR P=0.0         0.100    
     CONTACT FORCE ERROR TOLERANCE FOR CONVERT SDI=YES                 1.00    
     DISPLACEMENT COMPATIBILITY TOLERANCE FOR DCOUP ELEMENTS           1.000E-05
     ROTATION COMPATIBILITY TOLERANCE FOR DCOUP ELEMENTS               1.000E-05

 EQUILIBRIUM WILL BE CHECKED FOR SEVERE DISCONTINUITY ITERATIONS

 TIME INCREMENTATION CONTROL PARAMETERS:
     FIRST EQUILIBRIUM ITERATION FOR CONSECUTIVE DIVERGENCE CHECK              4
     EQUILIBRIUM ITERATION AT WHICH LOG. CONVERGENCE RATE CHECK BEGINS         8
     EQUILIBRIUM ITERATION AFTER WHICH ALTERNATE RESIDUAL IS USED              9
     MAXIMUM EQUILIBRIUM ITERATIONS ALLOWED                                   16
     EQUILIBRIUM ITERATION COUNT FOR CUT-BACK IN NEXT INCREMENT               10
     MAXIMUM EQUILIB. ITERS IN TWO INCREMENTS FOR TIME INCREMENT INCREASE      4
     MAXIMUM ITERATIONS FOR SEVERE DISCONTINUITIES                            50
     MAXIMUM ATTEMPTS ALLOWED IN AN INCREMENT                                  5
     MAXIMUM DISCON. ITERS IN TWO INCREMENTS FOR TIME INCREMENT INCREASE      50
     MAXIMUM CONTACT AUGMENTATIONS FOR *SURFACE BEHAVIOR,AUGMENTED LAGRANGE   50
     CUT-BACK FACTOR AFTER DIVERGENCE                                 0.2500    
     CUT-BACK FACTOR FOR TOO SLOW CONVERGENCE                         0.5000    
     CUT-BACK FACTOR AFTER TOO MANY EQUILIBRIUM ITERATIONS            0.7500    
     CUT-BACK FACTOR AFTER TOO MANY SEVERE DISCONTINUITY ITERATIONS   0.2500    
     CUT-BACK FACTOR AFTER PROBLEMS IN ELEMENT ASSEMBLY               0.2500    
     INCREASE FACTOR AFTER TWO INCREMENTS THAT CONVERGE QUICKLY        1.500    
     MAX. TIME INCREMENT INCREASE FACTOR ALLOWED                       1.500    
     MAX. TIME INCREMENT INCREASE FACTOR ALLOWED (DYNAMICS)            1.250    
     MAX. TIME INCREMENT INCREASE FACTOR ALLOWED (DIFFUSION)           2.000    
     MINIMUM TIME INCREMENT RATIO FOR EXTRAPOLATION TO OCCUR          0.1000    
     MAX. RATIO OF TIME INCREMENT TO STABILITY LIMIT                   1.000    
     FRACTION OF STABILITY LIMIT FOR NEW TIME INCREMENT               0.9500    
     TIME INCREMENT INCREASE FACTOR BEFORE A TIME POINT                1.000    
     GLOBAL STABILIZATION CONTROL IS NOT USED

          PRINT OF INCREMENT NUMBER, TIME, ETC., EVERY    1  INCREMENTS

     THE MAXIMUM NUMBER OF INCREMENTS IN THIS STEP IS                     100

          LARGE DISPLACEMENT THEORY WILL BE USED

     LINEAR EXTRAPOLATION WILL BE USED

     CHARACTERISTIC ELEMENT LENGTH      15.8    

     DETAILS REGARDING ACTUAL SOLUTION WAVEFRONT REQUESTED

     DETAILED OUTPUT OF DIAGNOSTICS TO DATABASE REQUESTED

     PRINT OF INCREMENT NUMBER, TIME, ETC., TO THE MESSAGE FILE EVERY     1  INCREMENTS

     ELEMENT OPERATIONS WILL BE CARRIED OUT IN PARALLEL USING   4 PROCESSORS

     PARALLEL CONTACT TRACKING ENABLED


     COLLECTING MODEL CONSTRAINT INFORMATION FOR OVERCONSTRAINT CHECKS

     COLLECTING STEP CONSTRAINT INFORMATION FOR OVERCONSTRAINT CHECKS
  
     ASYNCHRONOUS OUTPUT DATABASE FRAME FLUSH STARTED
  


  INCREMENT     1 STARTS. ATTEMPT NUMBER  1, TIME INCREMENT  0.100    
 
     INITIAL ELEMENT LOAD BALANCE
        COMPUTE NODE   1   PROCESS    NUMBER OF ELEMENTS
                              1            768
                              2            881
                              3            768
                              4            1280

 ***WARNING: THERE ARE 2 UNCONNECTED REGIONS IN THE MODEL.

  NUMBER OF EQUATIONS =      2088     NUMBER OF FLOATING PT. OPERATIONS =  5.11E+05

  USING THE DIRECT SOLVER WITH   4 PROCESSORS

     CHECK POINT   START OF SOLVER    

     CHECK POINT  END OF SOLVER       

       ELAPSED USER TIME (SEC)      =  0.10000    
       ELAPSED SYSTEM TIME (SEC)    =   0.0000    
       ELAPSED TOTAL CPU TIME (SEC) =  0.10000    
       ELAPSED WALLCLOCK TIME (SEC) =          0

               CONVERGENCE CHECKS FOR EQUILIBRIUM ITERATION     1


 AVERAGE FORCE                      2.275E+06   TIME AVG. FORCE       2.275E+06
 LARGEST RESIDUAL FORCE            -6.863E+04   AT NODE     100075   DOF  3
   INSTANCE: SUSPENSIONBRIDGE                                                                
 LARGEST INCREMENT OF DISP.        -6.818E-02   AT NODE     100075   DOF  1
   INSTANCE: SUSPENSIONBRIDGE                                                                
 LARGEST CORRECTION TO DISP.       -6.818E-02   AT NODE     100075   DOF  1
   INSTANCE: SUSPENSIONBRIDGE                                                                
          FORCE     EQUILIBRIUM NOT ACHIEVED WITHIN TOLERANCE.

 AVERAGE MOMENT                     5.837E+06   TIME AVG. MOMENT      5.837E+06
 LARGEST RESIDUAL MOMENT           -4.023E+03   AT NODE     110038   DOF  5
   INSTANCE: SUSPENSIONBRIDGE                                                                
 LARGEST INCREMENT OF ROTATION     -3.107E-04   AT NODE     100075   DOF  5
   INSTANCE: SUSPENSIONBRIDGE                                                                
 LARGEST CORRECTION TO ROTATION    -3.107E-04   AT NODE     100075   DOF  5
   INSTANCE: SUSPENSIONBRIDGE                                                                
 ESTIMATE OF ROTATION CORRECTION   -1.001E-06
 MOMENT    EQUILIB. ACCEPTED BASED ON SMALL RESIDUAL AND ESTIMATED CORRECTION

  NUMBER OF EQUATIONS =      2088     NUMBER OF FLOATING PT. OPERATIONS =  5.11E+05

  USING THE DIRECT SOLVER WITH   4 PROCESSORS

     CHECK POINT   START OF SOLVER    

     CHECK POINT  END OF SOLVER       

       ELAPSED USER TIME (SEC)      =  0.10000    
       ELAPSED SYSTEM TIME (SEC)    =  0.10000    
       ELAPSED TOTAL CPU TIME (SEC) =  0.20000    
       ELAPSED WALLCLOCK TIME (SEC) =          0

               CONVERGENCE CHECKS FOR EQUILIBRIUM ITERATION     2


 AVERAGE FORCE                      2.279E+06   TIME AVG. FORCE       2.279E+06
 LARGEST RESIDUAL FORCE             -61.9       AT NODE     100075   DOF  3
   INSTANCE: SUSPENSIONBRIDGE                                                                
 LARGEST INCREMENT OF DISP.        -7.041E-02   AT NODE     100075   DOF  1
   INSTANCE: SUSPENSIONBRIDGE                                                                
 LARGEST CORRECTION TO DISP.       -2.227E-03   AT NODE     110075   DOF  1
   INSTANCE: SUSPENSIONBRIDGE                                                                
 ESTIMATE OF DISP.    CORRECTION   -2.008E-06
 FORCE     EQUILIB. ACCEPTED BASED ON SMALL RESIDUAL AND ESTIMATED CORRECTION

 AVERAGE MOMENT                     5.993E+06   TIME AVG. MOMENT      5.993E+06
 LARGEST RESIDUAL MOMENT            -51.2       AT NODE     110058   DOF  6
   INSTANCE: SUSPENSIONBRIDGE                                                                
 LARGEST INCREMENT OF ROTATION     -3.201E-04   AT NODE     110075   DOF  5
   INSTANCE: SUSPENSIONBRIDGE                                                                
 LARGEST CORRECTION TO ROTATION    -9.344E-06   AT NODE     110075   DOF  5
   INSTANCE: SUSPENSIONBRIDGE                                                                
 ESTIMATE OF ROTATION CORRECTION   -1.189E-07
 MOMENT    EQUILIB. ACCEPTED BASED ON SMALL RESIDUAL AND ESTIMATED CORRECTION

 ITERATION SUMMARY FOR THE INCREMENT:   2 TOTAL ITERATIONS, OF WHICH
   0 ARE SEVERE DISCONTINUITY ITERATIONS AND  2 ARE EQUILIBRIUM ITERATIONS.

 TIME INCREMENT COMPLETED  0.100    ,  FRACTION OF STEP COMPLETED  0.100    
 STEP TIME COMPLETED       0.100    ,  TOTAL TIME COMPLETED        0.100    


  INCREMENT     2 STARTS. ATTEMPT NUMBER  1, TIME INCREMENT  0.100    

  NUMBER OF EQUATIONS =      2088     NUMBER OF FLOATING PT. OPERATIONS =  5.11E+05

  USING THE DIRECT SOLVER WITH   4 PROCESSORS

     CHECK POINT   START OF SOLVER    

     CHECK POINT  END OF SOLVER       

       ELAPSED USER TIME (SEC)      =   0.0000    
       ELAPSED SYSTEM TIME (SEC)    =   0.0000    
       ELAPSED TOTAL CPU TIME (SEC) =   0.0000    
       ELAPSED WALLCLOCK TIME (SEC) =          0

               CONVERGENCE CHECKS FOR EQUILIBRIUM ITERATION     1


 AVERAGE FORCE                      1.084E+07   TIME AVG. FORCE       6.559E+06
 LARGEST RESIDUAL FORCE             -577.       AT NODE     201404   DOF  3
   INSTANCE: SUSPENSIONBRIDGE                                                                
 LARGEST INCREMENT OF DISP.        -7.501E-02   AT NODE     100075   DOF  1
   INSTANCE: SUSPENSIONBRIDGE                                                                
 LARGEST CORRECTION TO DISP.        4.605E-03   AT NODE     200075   DOF  1
   INSTANCE: SUSPENSIONBRIDGE                                                                
 ESTIMATE OF DISP.    CORRECTION    1.822E-05
 FORCE     EQUILIB. ACCEPTED BASED ON SMALL RESIDUAL AND ESTIMATED CORRECTION

 AVERAGE MOMENT                     1.342E+07   TIME AVG. MOMENT      9.707E+06
 LARGEST RESIDUAL MOMENT           -5.123E+03   AT NODE     210072   DOF  4
   INSTANCE: SUSPENSIONBRIDGE                                                                
 LARGEST INCREMENT OF ROTATION      3.394E-04   AT NODE     210075   DOF  5
   INSTANCE: SUSPENSIONBRIDGE                                                                
 LARGEST CORRECTION TO ROTATION     1.932E-05   AT NODE     210075   DOF  5
   INSTANCE: SUSPENSIONBRIDGE                                                                
          ROTATION CORRECTION TOO LARGE COMPARED TO ROTATION INCREMENT

  NUMBER OF EQUATIONS =      2088     NUMBER OF FLOATING PT. OPERATIONS =  5.11E+05

  USING THE DIRECT SOLVER WITH   4 PROCESSORS

     CHECK POINT   START OF SOLVER    

     CHECK POINT  END OF SOLVER       

       ELAPSED USER TIME (SEC)      =   0.0000    
       ELAPSED SYSTEM TIME (SEC)    =   0.0000    
       ELAPSED TOTAL CPU TIME (SEC) =   0.0000    
       ELAPSED WALLCLOCK TIME (SEC) =          0

               CONVERGENCE CHECKS FOR EQUILIBRIUM ITERATION     2


 AVERAGE FORCE                      1.084E+07   TIME AVG. FORCE       6.559E+06
 LARGEST RESIDUAL FORCE            -0.823       AT NODE     100072   DOF  1
   INSTANCE: SUSPENSIONBRIDGE                                                                
 LARGEST INCREMENT OF DISP.        -7.517E-02   AT NODE     100075   DOF  1
   INSTANCE: SUSPENSIONBRIDGE                                                                
 LARGEST CORRECTION TO DISP.        1.592E-04   AT NODE     200075   DOF  1
   INSTANCE: SUSPENSIONBRIDGE                                                                
          THE FORCE     EQUILIBRIUM EQUATIONS HAVE CONVERGED

 AVERAGE MOMENT                     1.343E+07   TIME AVG. MOMENT      9.713E+06
 LARGEST RESIDUAL MOMENT             7.31       AT NODE     210058   DOF  6
   INSTANCE: SUSPENSIONBRIDGE                                                                
 LARGEST INCREMENT OF ROTATION      3.401E-04   AT NODE     210075   DOF  5
   INSTANCE: SUSPENSIONBRIDGE                                                                
 LARGEST CORRECTION TO ROTATION     6.630E-07   AT NODE     210075   DOF  5
   INSTANCE: SUSPENSIONBRIDGE                                                                
          THE MOMENT    EQUILIBRIUM EQUATIONS HAVE CONVERGED
          TIME INCREMENT MAY NOW INCREASE TO    0.150    

 ITERATION SUMMARY FOR THE INCREMENT:   2 TOTAL ITERATIONS, OF WHICH
   0 ARE SEVERE DISCONTINUITY ITERATIONS AND  2 ARE EQUILIBRIUM ITERATIONS.

 TIME INCREMENT COMPLETED  0.100    ,  FRACTION OF STEP COMPLETED  0.200    
 STEP TIME COMPLETED       0.200    ,  TOTAL TIME COMPLETED        0.200    


  INCREMENT     3 STARTS. ATTEMPT NUMBER  1, TIME INCREMENT  0.150    

  NUMBER OF EQUATIONS =      2088     NUMBER OF FLOATING PT. OPERATIONS =  5.11E+05

  USING THE DIRECT SOLVER WITH   4 PROCESSORS

     CHECK POINT   START OF SOLVER    

     CHECK POINT  END OF SOLVER       

       ELAPSED USER TIME (SEC)      =   0.0000    
       ELAPSED SYSTEM TIME (SEC)    =   0.0000    
       ELAPSED TOTAL CPU TIME (SEC) =   0.0000    
       ELAPSED WALLCLOCK TIME (SEC) =          0

               CONVERGENCE CHECKS FOR EQUILIBRIUM ITERATION     1


 AVERAGE FORCE                      1.897E+07   TIME AVG. FORCE       1.070E+07
 LARGEST RESIDUAL FORCE            -1.225E+03   AT NODE     101402   DOF  3
   INSTANCE: SUSPENSIONBRIDGE                                                                
 LARGEST INCREMENT OF DISP.         0.122       AT NODE     200075   DOF  1
   INSTANCE: SUSPENSIONBRIDGE                                                                
 LARGEST CORRECTION TO DISP.        9.548E-03   AT NODE     200075   DOF  1
   INSTANCE: SUSPENSIONBRIDGE                                                                
 ESTIMATE OF DISP.    CORRECTION    3.796E-05
 FORCE     EQUILIB. ACCEPTED BASED ON SMALL RESIDUAL AND ESTIMATED CORRECTION

 AVERAGE MOMENT                     2.451E+07   TIME AVG. MOMENT      1.464E+07
 LARGEST RESIDUAL MOMENT            1.089E+04   AT NODE     100072   DOF  4
   INSTANCE: SUSPENSIONBRIDGE                                                                
 LARGEST INCREMENT OF ROTATION      5.501E-04   AT NODE     210075   DOF  5
   INSTANCE: SUSPENSIONBRIDGE                                                                
 LARGEST CORRECTION TO ROTATION     4.003E-05   AT NODE     200075   DOF  5
   INSTANCE: SUSPENSIONBRIDGE                                                                
          ROTATION CORRECTION TOO LARGE COMPARED TO ROTATION INCREMENT

  NUMBER OF EQUATIONS =      2088     NUMBER OF FLOATING PT. OPERATIONS =  5.11E+05

  USING THE DIRECT SOLVER WITH   4 PROCESSORS

     CHECK POINT   START OF SOLVER    

     CHECK POINT  END OF SOLVER       

       ELAPSED USER TIME (SEC)      =  0.10000    
       ELAPSED SYSTEM TIME (SEC)    =   0.0000    
       ELAPSED TOTAL CPU TIME (SEC) =  0.10000    
       ELAPSED WALLCLOCK TIME (SEC) =          0

               CONVERGENCE CHECKS FOR EQUILIBRIUM ITERATION     2


 AVERAGE FORCE                      1.897E+07   TIME AVG. FORCE       1.070E+07
 LARGEST RESIDUAL FORCE             -4.70       AT NODE     110072   DOF  1
   INSTANCE: SUSPENSIONBRIDGE                                                                
 LARGEST INCREMENT OF DISP.         0.123       AT NODE     210075   DOF  1
   INSTANCE: SUSPENSIONBRIDGE                                                                
 LARGEST CORRECTION TO DISP.       -5.225E-04   AT NODE     110075   DOF  1
   INSTANCE: SUSPENSIONBRIDGE                                                                
          THE FORCE     EQUILIBRIUM EQUATIONS HAVE CONVERGED

 AVERAGE MOMENT                     2.455E+07   TIME AVG. MOMENT      1.466E+07
 LARGEST RESIDUAL MOMENT            -41.8       AT NODE     200058   DOF  6
   INSTANCE: SUSPENSIONBRIDGE                                                                
 LARGEST INCREMENT OF ROTATION     -5.523E-04   AT NODE     110075   DOF  5
   INSTANCE: SUSPENSIONBRIDGE                                                                
 LARGEST CORRECTION TO ROTATION    -2.175E-06   AT NODE     100075   DOF  5
   INSTANCE: SUSPENSIONBRIDGE                                                                
          THE MOMENT    EQUILIBRIUM EQUATIONS HAVE CONVERGED
          TIME INCREMENT MAY NOW INCREASE TO    0.225    

 ITERATION SUMMARY FOR THE INCREMENT:   2 TOTAL ITERATIONS, OF WHICH
   0 ARE SEVERE DISCONTINUITY ITERATIONS AND  2 ARE EQUILIBRIUM ITERATIONS.

 TIME INCREMENT COMPLETED  0.150    ,  FRACTION OF STEP COMPLETED  0.350    
 STEP TIME COMPLETED       0.350    ,  TOTAL TIME COMPLETED        0.350    


  INCREMENT     4 STARTS. ATTEMPT NUMBER  1, TIME INCREMENT  0.225    

  NUMBER OF EQUATIONS =      2088     NUMBER OF FLOATING PT. OPERATIONS =  5.11E+05

  USING THE DIRECT SOLVER WITH   4 PROCESSORS

     CHECK POINT   START OF SOLVER    

     CHECK POINT  END OF SOLVER       

       ELAPSED USER TIME (SEC)      =   0.0000    
       ELAPSED SYSTEM TIME (SEC)    =   0.0000    
       ELAPSED TOTAL CPU TIME (SEC) =   0.0000    
       ELAPSED WALLCLOCK TIME (SEC) =          1

               CONVERGENCE CHECKS FOR EQUILIBRIUM ITERATION     1


 AVERAGE FORCE                      3.116E+07   TIME AVG. FORCE       1.581E+07
 LARGEST RESIDUAL FORCE            -7.603E+03   AT NODE     210075   DOF  3
   INSTANCE: SUSPENSIONBRIDGE                                                                
 LARGEST INCREMENT OF DISP.         0.209       AT NODE     200075   DOF  1
   INSTANCE: SUSPENSIONBRIDGE                                                                
 LARGEST CORRECTION TO DISP.        2.473E-02   AT NODE     200075   DOF  1
   INSTANCE: SUSPENSIONBRIDGE                                                                
 ESTIMATE OF DISP.    CORRECTION    2.313E-04
 FORCE     EQUILIB. ACCEPTED BASED ON SMALL RESIDUAL AND ESTIMATED CORRECTION

 AVERAGE MOMENT                     4.311E+07   TIME AVG. MOMENT      2.177E+07
 LARGEST RESIDUAL MOMENT           -2.897E+04   AT NODE     110072   DOF  4
   INSTANCE: SUSPENSIONBRIDGE                                                                
 LARGEST INCREMENT OF ROTATION      9.320E-04   AT NODE     200075   DOF  5
   INSTANCE: SUSPENSIONBRIDGE                                                                
 LARGEST CORRECTION TO ROTATION     1.036E-04   AT NODE     200075   DOF  5
   INSTANCE: SUSPENSIONBRIDGE                                                                
          ROTATION CORRECTION TOO LARGE COMPARED TO ROTATION INCREMENT

  NUMBER OF EQUATIONS =      2088     NUMBER OF FLOATING PT. OPERATIONS =  5.11E+05

  USING THE DIRECT SOLVER WITH   4 PROCESSORS

     CHECK POINT   START OF SOLVER    

     CHECK POINT  END OF SOLVER       

       ELAPSED USER TIME (SEC)      =  0.10000    
       ELAPSED SYSTEM TIME (SEC)    =   0.0000    
       ELAPSED TOTAL CPU TIME (SEC) =  0.10000    
       ELAPSED WALLCLOCK TIME (SEC) =          0

               CONVERGENCE CHECKS FOR EQUILIBRIUM ITERATION     2


 AVERAGE FORCE                      3.116E+07   TIME AVG. FORCE       1.581E+07
 LARGEST RESIDUAL FORCE             -60.1       AT NODE     100075   DOF  3
   INSTANCE: SUSPENSIONBRIDGE                                                                
 LARGEST INCREMENT OF DISP.         0.211       AT NODE     200075   DOF  1
   INSTANCE: SUSPENSIONBRIDGE                                                                
 LARGEST CORRECTION TO DISP.       -2.212E-03   AT NODE     110075   DOF  1
   INSTANCE: SUSPENSIONBRIDGE                                                                
 ESTIMATE OF DISP.    CORRECTION   -1.748E-05
 FORCE     EQUILIB. ACCEPTED BASED ON SMALL RESIDUAL AND ESTIMATED CORRECTION

 AVERAGE MOMENT                     4.327E+07   TIME AVG. MOMENT      2.181E+07
 LARGEST RESIDUAL MOMENT             291.       AT NODE     100058   DOF  6
   INSTANCE: SUSPENSIONBRIDGE                                                                
 LARGEST INCREMENT OF ROTATION     -9.412E-04   AT NODE     100075   DOF  5
   INSTANCE: SUSPENSIONBRIDGE                                                                
 LARGEST CORRECTION TO ROTATION    -9.206E-06   AT NODE     100075   DOF  5
   INSTANCE: SUSPENSIONBRIDGE                                                                
          THE MOMENT    EQUILIBRIUM EQUATIONS HAVE CONVERGED
          TIME INCREMENT MAY NOW INCREASE TO    0.338    

 ITERATION SUMMARY FOR THE INCREMENT:   2 TOTAL ITERATIONS, OF WHICH
   0 ARE SEVERE DISCONTINUITY ITERATIONS AND  2 ARE EQUILIBRIUM ITERATIONS.

 TIME INCREMENT COMPLETED  0.225    ,  FRACTION OF STEP COMPLETED  0.575    
 STEP TIME COMPLETED       0.575    ,  TOTAL TIME COMPLETED        0.575    


  INCREMENT     5 STARTS. ATTEMPT NUMBER  1, TIME INCREMENT  0.338    

  NUMBER OF EQUATIONS =      2088     NUMBER OF FLOATING PT. OPERATIONS =  5.11E+05

  USING THE DIRECT SOLVER WITH   4 PROCESSORS

     CHECK POINT   START OF SOLVER    

     CHECK POINT  END OF SOLVER       

       ELAPSED USER TIME (SEC)      =   0.0000    
       ELAPSED SYSTEM TIME (SEC)    =   0.0000    
       ELAPSED TOTAL CPU TIME (SEC) =   0.0000    
       ELAPSED WALLCLOCK TIME (SEC) =          0

               CONVERGENCE CHECKS FOR EQUILIBRIUM ITERATION     1


 AVERAGE FORCE                      4.885E+07   TIME AVG. FORCE       2.242E+07
 LARGEST RESIDUAL FORCE            -6.017E+04   AT NODE     210075   DOF  3
   INSTANCE: SUSPENSIONBRIDGE                                                                
 LARGEST INCREMENT OF DISP.         0.386       AT NODE     210075   DOF  1
   INSTANCE: SUSPENSIONBRIDGE                                                                
 LARGEST CORRECTION TO DISP.        6.964E-02   AT NODE     210075   DOF  1
   INSTANCE: SUSPENSIONBRIDGE                                                                
 ESTIMATE OF DISP.    CORRECTION    1.776E-03
 FORCE     EQUILIB. ACCEPTED BASED ON SMALL RESIDUAL AND ESTIMATED CORRECTION

 AVERAGE MOMENT                     7.667E+07   TIME AVG. MOMENT      3.278E+07
 LARGEST RESIDUAL MOMENT           -8.600E+04   AT NODE     210072   DOF  4
   INSTANCE: SUSPENSIONBRIDGE                                                                
 LARGEST INCREMENT OF ROTATION      1.703E-03   AT NODE     200075   DOF  5
   INSTANCE: SUSPENSIONBRIDGE                                                                
 LARGEST CORRECTION TO ROTATION     2.914E-04   AT NODE     200075   DOF  5
   INSTANCE: SUSPENSIONBRIDGE                                                                
          ROTATION CORRECTION TOO LARGE COMPARED TO ROTATION INCREMENT

  NUMBER OF EQUATIONS =      2088     NUMBER OF FLOATING PT. OPERATIONS =  5.11E+05

  USING THE DIRECT SOLVER WITH   4 PROCESSORS

     CHECK POINT   START OF SOLVER    

     CHECK POINT  END OF SOLVER       

       ELAPSED USER TIME (SEC)      =  0.10000    
       ELAPSED SYSTEM TIME (SEC)    =   0.0000    
       ELAPSED TOTAL CPU TIME (SEC) =  0.10000    
       ELAPSED WALLCLOCK TIME (SEC) =          0

               CONVERGENCE CHECKS FOR EQUILIBRIUM ITERATION     2


 AVERAGE FORCE                      4.946E+07   TIME AVG. FORCE       2.254E+07
 LARGEST RESIDUAL FORCE            -1.431E+03   AT NODE     200075   DOF  3
   INSTANCE: SUSPENSIONBRIDGE                                                                
 LARGEST INCREMENT OF DISP.         0.397       AT NODE     210075   DOF  1
   INSTANCE: SUSPENSIONBRIDGE                                                                
 LARGEST CORRECTION TO DISP.       -1.080E-02   AT NODE     100075   DOF  1
   INSTANCE: SUSPENSIONBRIDGE                                                                
 ESTIMATE OF DISP.    CORRECTION   -2.567E-04
 FORCE     EQUILIB. ACCEPTED BASED ON SMALL RESIDUAL AND ESTIMATED CORRECTION

 AVERAGE MOMENT                     7.749E+07   TIME AVG. MOMENT      3.295E+07
 LARGEST RESIDUAL MOMENT           -2.252E+03   AT NODE     110058   DOF  6
   INSTANCE: SUSPENSIONBRIDGE                                                                
 LARGEST INCREMENT OF ROTATION      1.748E-03   AT NODE     200075   DOF  5
   INSTANCE: SUSPENSIONBRIDGE                                                                
 LARGEST CORRECTION TO ROTATION    -4.493E-05   AT NODE     110075   DOF  5
   INSTANCE: SUSPENSIONBRIDGE                                                                
 ESTIMATE OF ROTATION CORRECTION   -1.176E-06
 MOMENT    EQUILIB. ACCEPTED BASED ON SMALL RESIDUAL AND ESTIMATED CORRECTION

 ITERATION SUMMARY FOR THE INCREMENT:   2 TOTAL ITERATIONS, OF WHICH
   0 ARE SEVERE DISCONTINUITY ITERATIONS AND  2 ARE EQUILIBRIUM ITERATIONS.

 TIME INCREMENT COMPLETED  0.338    ,  FRACTION OF STEP COMPLETED  0.913    
 STEP TIME COMPLETED       0.913    ,  TOTAL TIME COMPLETED        0.913    


  INCREMENT     6 STARTS. ATTEMPT NUMBER  1, TIME INCREMENT  8.750E-02

  NUMBER OF EQUATIONS =      2088     NUMBER OF FLOATING PT. OPERATIONS =  5.11E+05

  USING THE DIRECT SOLVER WITH   4 PROCESSORS

     CHECK POINT   START OF SOLVER    

     CHECK POINT  END OF SOLVER       

       ELAPSED USER TIME (SEC)      =   0.0000    
       ELAPSED SYSTEM TIME (SEC)    =   0.0000    
       ELAPSED TOTAL CPU TIME (SEC) =   0.0000    
       ELAPSED WALLCLOCK TIME (SEC) =          0

               CONVERGENCE CHECKS FOR EQUILIBRIUM ITERATION     1


 AVERAGE FORCE                      5.420E+07   TIME AVG. FORCE       2.782E+07
 LARGEST RESIDUAL FORCE            -4.864E+03   AT NODE     200075   DOF  3
   INSTANCE: SUSPENSIONBRIDGE                                                                
 LARGEST INCREMENT OF DISP.        -0.123       AT NODE     100075   DOF  1
   INSTANCE: SUSPENSIONBRIDGE                                                                
 LARGEST CORRECTION TO DISP.       -1.983E-02   AT NODE     100075   DOF  1
   INSTANCE: SUSPENSIONBRIDGE                                                                
 ESTIMATE OF DISP.    CORRECTION   -1.359E-04
 FORCE     EQUILIB. ACCEPTED BASED ON SMALL RESIDUAL AND ESTIMATED CORRECTION

 AVERAGE MOMENT                     8.787E+07   TIME AVG. MOMENT      4.210E+07
 LARGEST RESIDUAL MOMENT           -2.539E+04   AT NODE     110072   DOF  4
   INSTANCE: SUSPENSIONBRIDGE                                                                
 LARGEST INCREMENT OF ROTATION     -5.361E-04   AT NODE     100075   DOF  5
   INSTANCE: SUSPENSIONBRIDGE                                                                
 LARGEST CORRECTION TO ROTATION    -8.284E-05   AT NODE     100075   DOF  5
   INSTANCE: SUSPENSIONBRIDGE                                                                
          ROTATION CORRECTION TOO LARGE COMPARED TO ROTATION INCREMENT

  NUMBER OF EQUATIONS =      2088     NUMBER OF FLOATING PT. OPERATIONS =  5.11E+05

  USING THE DIRECT SOLVER WITH   4 PROCESSORS

     CHECK POINT   START OF SOLVER    

     CHECK POINT  END OF SOLVER       

       ELAPSED USER TIME (SEC)      =  0.10000    
       ELAPSED SYSTEM TIME (SEC)    =   0.0000    
       ELAPSED TOTAL CPU TIME (SEC) =  0.10000    
       ELAPSED WALLCLOCK TIME (SEC) =          0

               CONVERGENCE CHECKS FOR EQUILIBRIUM ITERATION     2


 AVERAGE FORCE                      5.420E+07   TIME AVG. FORCE       2.782E+07
 LARGEST RESIDUAL FORCE             -21.2       AT NODE     110072   DOF  1
   INSTANCE: SUSPENSIONBRIDGE                                                                
 LARGEST INCREMENT OF DISP.         0.124       AT NODE     210075   DOF  1
   INSTANCE: SUSPENSIONBRIDGE                                                                
 LARGEST CORRECTION TO DISP.        8.308E-04   AT NODE     210075   DOF  1
   INSTANCE: SUSPENSIONBRIDGE                                                                
          THE FORCE     EQUILIBRIUM EQUATIONS HAVE CONVERGED

 AVERAGE MOMENT                     8.793E+07   TIME AVG. MOMENT      4.211E+07
 LARGEST RESIDUAL MOMENT            -190.       AT NODE     200058   DOF  6
   INSTANCE: SUSPENSIONBRIDGE                                                                
 LARGEST INCREMENT OF ROTATION     -5.395E-04   AT NODE     110075   DOF  5
   INSTANCE: SUSPENSIONBRIDGE                                                                
 LARGEST CORRECTION TO ROTATION    -3.457E-06   AT NODE     110075   DOF  5
   INSTANCE: SUSPENSIONBRIDGE                                                                
          THE MOMENT    EQUILIBRIUM EQUATIONS HAVE CONVERGED

 ITERATION SUMMARY FOR THE INCREMENT:   2 TOTAL ITERATIONS, OF WHICH
   0 ARE SEVERE DISCONTINUITY ITERATIONS AND  2 ARE EQUILIBRIUM ITERATIONS.

 TIME INCREMENT COMPLETED  8.750E-02,  FRACTION OF STEP COMPLETED   1.00    
 STEP TIME COMPLETED        1.00    ,  TOTAL TIME COMPLETED         1.00    
1

   Abaqus 3DEXPERIENCE R2017x                                  Date 10-Apr-2023   Time 10:31:49
   For use by NTNU NORGES TEKNISK NATURVITENSKAPELIGE UNIVERSITET under license from Dassault Systemes or its subsidiary.

                                                                                 
                                                                                 
 STEP    2     INCREMENT     1     STEP TIME    0.00    


                        S T E P       2     S T A T I C   A N A L Y S I S


                                                                                          

     AUTOMATIC TIME CONTROL WITH -
          A SUGGESTED INITIAL TIME INCREMENT OF                1.000E-06
          AND A TOTAL TIME PERIOD OF                            1.00    
          THE MINIMUM TIME INCREMENT ALLOWED IS                1.000E-12
          THE MAXIMUM TIME INCREMENT ALLOWED IS                 1.00    

     LINEAR EQUATION SOLVER TYPE         DIRECT SPARSE

 CONVERGENCE TOLERANCE PARAMETERS FOR FORCE    
     CRITERION FOR RESIDUAL FORCE     FOR A NONLINEAR PROBLEM          5.000E-03
     CRITERION FOR DISP.    CORRECTION IN A NONLINEAR PROBLEM          1.000E-02
     INIT. VALUE OF TIME AVG. FORCE     IS TIME AVG. FORCE     IN PREVIOUS STEP
     AVERAGE FORCE     IS TIME AVERAGE FORCE    
     ALTERNATE CRIT. FOR RESIDUAL FORCE     FOR A NONLINEAR PROBLEM    2.000E-02
     CRITERION FOR ZERO FORCE     RELATIVE TO TIME AVRG. FORCE         1.000E-05
     CRITERION FOR RESIDUAL FORCE     WHEN THERE IS ZERO FLUX          1.000E-05
     CRITERION FOR DISP.    CORRECTION WHEN THERE IS ZERO FLUX         1.000E-03
     CRITERION FOR RESIDUAL FORCE     FOR A LINEAR INCREMENT           1.000E-08
     FIELD CONVERSION RATIO                                             1.00    
     CRITERION FOR ZERO FORCE     REL. TO TIME AVRG. MAX. FORCE        1.000E-05
     CRITERION FOR ZERO DISP.    RELATIVE TO CHARACTERISTIC LENGTH     1.000E-08

 CONVERGENCE TOLERANCE PARAMETERS FOR MOMENT   
     CRITERION FOR RESIDUAL MOMENT    FOR A NONLINEAR PROBLEM          5.000E-03
     CRITERION FOR ROTATION CORRECTION IN A NONLINEAR PROBLEM          1.000E-02
     INIT. VALUE OF TIME AVG. MOMENT    IS TIME AVG. MOMENT    IN PREVIOUS STEP
     AVERAGE MOMENT    IS TIME AVERAGE MOMENT   
     ALTERNATE CRIT. FOR RESIDUAL MOMENT    FOR A NONLINEAR PROBLEM    2.000E-02
     CRITERION FOR ZERO MOMENT    RELATIVE TO TIME AVRG. MOMENT        1.000E-05
     CRITERION FOR RESIDUAL MOMENT    WHEN THERE IS ZERO FLUX          1.000E-05
     CRITERION FOR ROTATION CORRECTION WHEN THERE IS ZERO FLUX         1.000E-03
     CRITERION FOR RESIDUAL MOMENT    FOR A LINEAR INCREMENT           1.000E-08
     FIELD CONVERSION RATIO                                             1.00    
     CRITERION FOR ZERO MOMENT    REL. TO TIME AVRG. MAX. MOMENT       1.000E-05

     VOLUMETRIC STRAIN COMPATIBILITY TOLERANCE FOR HYBRID SOLIDS       1.000E-05
     AXIAL STRAIN COMPATIBILITY TOLERANCE FOR HYBRID BEAMS             1.000E-05
     TRANS. SHEAR STRAIN COMPATIBILITY TOLERANCE FOR HYBRID BEAMS      1.000E-05
     SOFT CONTACT CONSTRAINT COMPATIBILITY TOLERANCE FOR P>P0          5.000E-03
     SOFT CONTACT CONSTRAINT COMPATIBILITY TOLERANCE FOR P=0.0         0.100    
     CONTACT FORCE ERROR TOLERANCE FOR CONVERT SDI=YES                 1.00    
     DISPLACEMENT COMPATIBILITY TOLERANCE FOR DCOUP ELEMENTS           1.000E-05
     ROTATION COMPATIBILITY TOLERANCE FOR DCOUP ELEMENTS               1.000E-05

 EQUILIBRIUM WILL BE CHECKED FOR SEVERE DISCONTINUITY ITERATIONS

 TIME INCREMENTATION CONTROL PARAMETERS:
     FIRST EQUILIBRIUM ITERATION FOR CONSECUTIVE DIVERGENCE CHECK              4
     EQUILIBRIUM ITERATION AT WHICH LOG. CONVERGENCE RATE CHECK BEGINS         8
     EQUILIBRIUM ITERATION AFTER WHICH ALTERNATE RESIDUAL IS USED              9
     MAXIMUM EQUILIBRIUM ITERATIONS ALLOWED                                   16
     EQUILIBRIUM ITERATION COUNT FOR CUT-BACK IN NEXT INCREMENT               10
     MAXIMUM EQUILIB. ITERS IN TWO INCREMENTS FOR TIME INCREMENT INCREASE      4
     MAXIMUM ITERATIONS FOR SEVERE DISCONTINUITIES                            50
     MAXIMUM ATTEMPTS ALLOWED IN AN INCREMENT                                  5
     MAXIMUM DISCON. ITERS IN TWO INCREMENTS FOR TIME INCREMENT INCREASE      50
     MAXIMUM CONTACT AUGMENTATIONS FOR *SURFACE BEHAVIOR,AUGMENTED LAGRANGE   50
     CUT-BACK FACTOR AFTER DIVERGENCE                                 0.2500    
     CUT-BACK FACTOR FOR TOO SLOW CONVERGENCE                         0.5000    
     CUT-BACK FACTOR AFTER TOO MANY EQUILIBRIUM ITERATIONS            0.7500    
     CUT-BACK FACTOR AFTER TOO MANY SEVERE DISCONTINUITY ITERATIONS   0.2500    
     CUT-BACK FACTOR AFTER PROBLEMS IN ELEMENT ASSEMBLY               0.2500    
     INCREASE FACTOR AFTER TWO INCREMENTS THAT CONVERGE QUICKLY        1.500    
     MAX. TIME INCREMENT INCREASE FACTOR ALLOWED                       1.500    
     MAX. TIME INCREMENT INCREASE FACTOR ALLOWED (DYNAMICS)            1.250    
     MAX. TIME INCREMENT INCREASE FACTOR ALLOWED (DIFFUSION)           2.000    
     MINIMUM TIME INCREMENT RATIO FOR EXTRAPOLATION TO OCCUR          0.1000    
     MAX. RATIO OF TIME INCREMENT TO STABILITY LIMIT                   1.000    
     FRACTION OF STABILITY LIMIT FOR NEW TIME INCREMENT               0.9500    
     TIME INCREMENT INCREASE FACTOR BEFORE A TIME POINT                1.000    
     GLOBAL STABILIZATION CONTROL IS NOT USED

          PRINT OF INCREMENT NUMBER, TIME, ETC., EVERY    1  INCREMENTS

     THE MAXIMUM NUMBER OF INCREMENTS IN THIS STEP IS                     100

          LARGE DISPLACEMENT THEORY WILL BE USED

     LINEAR EXTRAPOLATION WILL BE USED

     CHARACTERISTIC ELEMENT LENGTH      15.8    

     DETAILS REGARDING ACTUAL SOLUTION WAVEFRONT REQUESTED

     DETAILED OUTPUT OF DIAGNOSTICS TO DATABASE REQUESTED

     PRINT OF INCREMENT NUMBER, TIME, ETC., TO THE MESSAGE FILE EVERY     1  INCREMENTS

     ELEMENT OPERATIONS WILL BE CARRIED OUT IN PARALLEL USING   4 PROCESSORS

     COLLECTING STEP CONSTRAINT INFORMATION FOR OVERCONSTRAINT CHECKS
  
     ASYNCHRONOUS OUTPUT DATABASE FRAME FLUSH STARTED
  


  INCREMENT     1 STARTS. ATTEMPT NUMBER  1, TIME INCREMENT  1.000E-06
 
     INITIAL ELEMENT LOAD BALANCE
        COMPUTE NODE   1   PROCESS    NUMBER OF ELEMENTS
                              1            881
                              2            1024
                              3            768
                              4            1024

  NUMBER OF EQUATIONS =      4716     NUMBER OF FLOATING PT. OPERATIONS =  1.30E+06

  USING THE DIRECT SOLVER WITH   4 PROCESSORS

     CHECK POINT   START OF SOLVER    

     CHECK POINT  END OF SOLVER       

       ELAPSED USER TIME (SEC)      =  0.10000    
       ELAPSED SYSTEM TIME (SEC)    =   0.0000    
       ELAPSED TOTAL CPU TIME (SEC) =  0.10000    
       ELAPSED WALLCLOCK TIME (SEC) =          0

               CONVERGENCE CHECKS FOR EQUILIBRIUM ITERATION     1


 AVERAGE FORCE                      3.154E+07   TIME AVG. FORCE       3.154E+07
 LARGEST RESIDUAL FORCE            -3.113E+06   AT NODE      10051   DOF  3
   INSTANCE: SUSPENSIONBRIDGE                                                                
 LARGEST INCREMENT OF DISP.         -2.51       AT NODE      10024   DOF  3
   INSTANCE: SUSPENSIONBRIDGE                                                                
 LARGEST CORRECTION TO DISP.        -2.51       AT NODE      10024   DOF  3
   INSTANCE: SUSPENSIONBRIDGE                                                                
          FORCE     EQUILIBRIUM NOT ACHIEVED WITHIN TOLERANCE.

 AVERAGE MOMENT                     8.793E+07   TIME AVG. MOMENT      8.793E+07
 LARGEST RESIDUAL MOMENT            -38.5       AT NODE      10002   DOF  5
   INSTANCE: SUSPENSIONBRIDGE                                                                
 LARGEST INCREMENT OF ROTATION      1.205E-02   AT NODE      10001   DOF  5
   INSTANCE: SUSPENSIONBRIDGE                                                                
 LARGEST CORRECTION TO ROTATION     1.205E-02   AT NODE      10001   DOF  5
   INSTANCE: SUSPENSIONBRIDGE                                                                
          ROTATION CORRECTION TOO LARGE COMPARED TO ROTATION INCREMENT

  NUMBER OF EQUATIONS =      4716     NUMBER OF FLOATING PT. OPERATIONS =  1.30E+06

  USING THE DIRECT SOLVER WITH   4 PROCESSORS

     CHECK POINT   START OF SOLVER    

     CHECK POINT  END OF SOLVER       

       ELAPSED USER TIME (SEC)      =  0.10000    
       ELAPSED SYSTEM TIME (SEC)    =   0.0000    
       ELAPSED TOTAL CPU TIME (SEC) =  0.10000    
       ELAPSED WALLCLOCK TIME (SEC) =          0

               CONVERGENCE CHECKS FOR EQUILIBRIUM ITERATION     2


 AVERAGE FORCE                      4.049E+07   TIME AVG. FORCE       4.049E+07
 LARGEST RESIDUAL FORCE            -1.058E+04   AT NODE     110075   DOF  3
   INSTANCE: SUSPENSIONBRIDGE                                                                
 LARGEST INCREMENT OF DISP.         -2.49       AT NODE      10024   DOF  3
   INSTANCE: SUSPENSIONBRIDGE                                                                
 LARGEST CORRECTION TO DISP.        9.102E-02   AT NODE      10112   DOF  3
   INSTANCE: SUSPENSIONBRIDGE                                                                
          DISP.    CORRECTION TOO LARGE COMPARED TO DISP.    INCREMENT

 AVERAGE MOMENT                     8.961E+07   TIME AVG. MOMENT      8.961E+07
 LARGEST RESIDUAL MOMENT            6.657E+03   AT NODE     100072   DOF  6
   INSTANCE: SUSPENSIONBRIDGE                                                                
 LARGEST INCREMENT OF ROTATION      1.200E-02   AT NODE      10001   DOF  5
   INSTANCE: SUSPENSIONBRIDGE                                                                
 LARGEST CORRECTION TO ROTATION    -5.021E-04   AT NODE      10065   DOF  5
   INSTANCE: SUSPENSIONBRIDGE                                                                
          ROTATION CORRECTION TOO LARGE COMPARED TO ROTATION INCREMENT

  NUMBER OF EQUATIONS =      4716     NUMBER OF FLOATING PT. OPERATIONS =  1.30E+06

  USING THE DIRECT SOLVER WITH   4 PROCESSORS

     CHECK POINT   START OF SOLVER    

     CHECK POINT  END OF SOLVER       

       ELAPSED USER TIME (SEC)      =  0.10000    
       ELAPSED SYSTEM TIME (SEC)    =   0.0000    
       ELAPSED TOTAL CPU TIME (SEC) =  0.10000    
       ELAPSED WALLCLOCK TIME (SEC) =          0

               CONVERGENCE CHECKS FOR EQUILIBRIUM ITERATION     3


 AVERAGE FORCE                      3.432E+07   TIME AVG. FORCE       3.432E+07
 LARGEST RESIDUAL FORCE            -3.516E+05   AT NODE      10051   DOF  3
   INSTANCE: SUSPENSIONBRIDGE                                                                
 LARGEST INCREMENT OF DISP.         -1.67       AT NODE      10024   DOF  3
   INSTANCE: SUSPENSIONBRIDGE                                                                
 LARGEST CORRECTION TO DISP.        0.816       AT NODE      10024   DOF  3
   INSTANCE: SUSPENSIONBRIDGE                                                                
          FORCE     EQUILIBRIUM NOT ACHIEVED WITHIN TOLERANCE.

 AVERAGE MOMENT                     8.851E+07   TIME AVG. MOMENT      8.851E+07
 LARGEST RESIDUAL MOMENT           -4.390E+03   AT NODE     100072   DOF  6
   INSTANCE: SUSPENSIONBRIDGE                                                                
 LARGEST INCREMENT OF ROTATION      8.028E-03   AT NODE      10001   DOF  5
   INSTANCE: SUSPENSIONBRIDGE                                                                
 LARGEST CORRECTION TO ROTATION    -3.975E-03   AT NODE      10001   DOF  5
   INSTANCE: SUSPENSIONBRIDGE                                                                
          ROTATION CORRECTION TOO LARGE COMPARED TO ROTATION INCREMENT

  NUMBER OF EQUATIONS =      4716     NUMBER OF FLOATING PT. OPERATIONS =  1.30E+06

  USING THE DIRECT SOLVER WITH   4 PROCESSORS

     CHECK POINT   START OF SOLVER    

     CHECK POINT  END OF SOLVER       

       ELAPSED USER TIME (SEC)      =  0.10000    
       ELAPSED SYSTEM TIME (SEC)    =   0.0000    
       ELAPSED TOTAL CPU TIME (SEC) =  0.10000    
       ELAPSED WALLCLOCK TIME (SEC) =          1

               CONVERGENCE CHECKS FOR EQUILIBRIUM ITERATION     4


 AVERAGE FORCE                      4.394E+07   TIME AVG. FORCE       4.394E+07
 LARGEST RESIDUAL FORCE            -2.186E+03   AT NODE      10023   DOF  1
   INSTANCE: SUSPENSIONBRIDGE                                                                
 LARGEST INCREMENT OF DISP.         -1.61       AT NODE      10024   DOF  3
   INSTANCE: SUSPENSIONBRIDGE                                                                
 LARGEST CORRECTION TO DISP.        6.156E-02   AT NODE      10025   DOF  3
   INSTANCE: SUSPENSIONBRIDGE                                                                
 ESTIMATE OF DISP.    CORRECTION    1.272E-02
 FORCE     EQUILIB. ACCEPTED BASED ON SMALL RESIDUAL AND ESTIMATED CORRECTION

 AVERAGE MOMENT                     8.865E+07   TIME AVG. MOMENT      8.865E+07
 LARGEST RESIDUAL MOMENT             563.       AT NODE     100072   DOF  6
   INSTANCE: SUSPENSIONBRIDGE                                                                
 LARGEST INCREMENT OF ROTATION      7.922E-03   AT NODE      10001   DOF  5
   INSTANCE: SUSPENSIONBRIDGE                                                                
 LARGEST CORRECTION TO ROTATION    -3.478E-04   AT NODE      10020   DOF  5
   INSTANCE: SUSPENSIONBRIDGE                                                                
 ESTIMATE OF ROTATION CORRECTION    4.462E-05
 MOMENT    EQUILIB. ACCEPTED BASED ON SMALL RESIDUAL AND ESTIMATED CORRECTION

 ITERATION SUMMARY FOR THE INCREMENT:   4 TOTAL ITERATIONS, OF WHICH
   0 ARE SEVERE DISCONTINUITY ITERATIONS AND  4 ARE EQUILIBRIUM ITERATIONS.

 TIME INCREMENT COMPLETED  1.000E-06,  FRACTION OF STEP COMPLETED  1.000E-06
 STEP TIME COMPLETED       1.000E-06,  TOTAL TIME COMPLETED         1.00    


  INCREMENT     2 STARTS. ATTEMPT NUMBER  1, TIME INCREMENT  1.000E-06

  NUMBER OF EQUATIONS =      4716     NUMBER OF FLOATING PT. OPERATIONS =  1.30E+06

  USING THE DIRECT SOLVER WITH   4 PROCESSORS

     CHECK POINT   START OF SOLVER    

     CHECK POINT  END OF SOLVER       

       ELAPSED USER TIME (SEC)      =  0.10000    
       ELAPSED SYSTEM TIME (SEC)    =   0.0000    
       ELAPSED TOTAL CPU TIME (SEC) =  0.10000    
       ELAPSED WALLCLOCK TIME (SEC) =          0

               CONVERGENCE CHECKS FOR EQUILIBRIUM ITERATION     1


 AVERAGE FORCE                      3.317E+07   TIME AVG. FORCE       3.856E+07
 LARGEST RESIDUAL FORCE            -1.087E+06   AT NODE      10051   DOF  3
   INSTANCE: SUSPENSIONBRIDGE                                                                
 LARGEST INCREMENT OF DISP.        -0.268       AT NODE      20074   DOF  3
   INSTANCE: SUSPENSIONBRIDGE                                                                
 LARGEST CORRECTION TO DISP.         1.37       AT NODE      20023   DOF  3
   INSTANCE: SUSPENSIONBRIDGE                                                                
          FORCE     EQUILIBRIUM NOT ACHIEVED WITHIN TOLERANCE.

 AVERAGE MOMENT                     8.870E+07   TIME AVG. MOMENT      8.868E+07
 LARGEST RESIDUAL MOMENT            4.127E+03   AT NODE     110072   DOF  6
   INSTANCE: SUSPENSIONBRIDGE                                                                
 LARGEST INCREMENT OF ROTATION     -9.333E-04   AT NODE      10219   DOF  5
   INSTANCE: SUSPENSIONBRIDGE                                                                
 LARGEST CORRECTION TO ROTATION    -7.028E-03   AT NODE      10001   DOF  5
   INSTANCE: SUSPENSIONBRIDGE                                                                
          ROTATION CORRECTION TOO LARGE COMPARED TO ROTATION INCREMENT

  NUMBER OF EQUATIONS =      4716     NUMBER OF FLOATING PT. OPERATIONS =  1.30E+06

  USING THE DIRECT SOLVER WITH   4 PROCESSORS

     CHECK POINT   START OF SOLVER    

     CHECK POINT  END OF SOLVER       

       ELAPSED USER TIME (SEC)      =  0.10000    
       ELAPSED SYSTEM TIME (SEC)    =   0.0000    
       ELAPSED TOTAL CPU TIME (SEC) =  0.10000    
       ELAPSED WALLCLOCK TIME (SEC) =          0

               CONVERGENCE CHECKS FOR EQUILIBRIUM ITERATION     2


 AVERAGE FORCE                      4.394E+07   TIME AVG. FORCE       4.394E+07
 LARGEST RESIDUAL FORCE            -2.581E+03   AT NODE      10023   DOF  1
   INSTANCE: SUSPENSIONBRIDGE                                                                
 LARGEST INCREMENT OF DISP.         0.282       AT NODE      10112   DOF  3
   INSTANCE: SUSPENSIONBRIDGE                                                                
 LARGEST CORRECTION TO DISP.        4.058E-02   AT NODE      10025   DOF  3
   INSTANCE: SUSPENSIONBRIDGE                                                                
 ESTIMATE OF DISP.    CORRECTION    9.638E-05
 FORCE     EQUILIB. ACCEPTED BASED ON SMALL RESIDUAL AND ESTIMATED CORRECTION

 AVERAGE MOMENT                     8.922E+07   TIME AVG. MOMENT      8.893E+07
 LARGEST RESIDUAL MOMENT           -2.025E+03   AT NODE     110072   DOF  6
   INSTANCE: SUSPENSIONBRIDGE                                                                
 LARGEST INCREMENT OF ROTATION     -9.071E-04   AT NODE      10219   DOF  5
   INSTANCE: SUSPENSIONBRIDGE                                                                
 LARGEST CORRECTION TO ROTATION    -3.626E-04   AT NODE      10021   DOF  5
   INSTANCE: SUSPENSIONBRIDGE                                                                
          ROTATION CORRECTION TOO LARGE COMPARED TO ROTATION INCREMENT

  NUMBER OF EQUATIONS =      4716     NUMBER OF FLOATING PT. OPERATIONS =  1.30E+06

  USING THE DIRECT SOLVER WITH   4 PROCESSORS

     CHECK POINT   START OF SOLVER    

     CHECK POINT  END OF SOLVER       

       ELAPSED USER TIME (SEC)      =  0.10000    
       ELAPSED SYSTEM TIME (SEC)    =   0.0000    
       ELAPSED TOTAL CPU TIME (SEC) =  0.10000    
       ELAPSED WALLCLOCK TIME (SEC) =          0

               CONVERGENCE CHECKS FOR EQUILIBRIUM ITERATION     3


 AVERAGE FORCE                      4.055E+07   TIME AVG. FORCE       4.224E+07
 LARGEST RESIDUAL FORCE            -1.074E+05   AT NODE      10051   DOF  3
   INSTANCE: SUSPENSIONBRIDGE                                                                
 LARGEST INCREMENT OF DISP.        -0.341       AT NODE      10070   DOF  3
   INSTANCE: SUSPENSIONBRIDGE                                                                
 LARGEST CORRECTION TO DISP.        0.514       AT NODE      20023   DOF  3
   INSTANCE: SUSPENSIONBRIDGE                                                                
          DISP.    CORRECTION TOO LARGE COMPARED TO DISP.    INCREMENT

 AVERAGE MOMENT                     8.872E+07   TIME AVG. MOMENT      8.869E+07
 LARGEST RESIDUAL MOMENT           -2.035E+03   AT NODE     100072   DOF  6
   INSTANCE: SUSPENSIONBRIDGE                                                                
 LARGEST INCREMENT OF ROTATION     -1.648E-03   AT NODE      10001   DOF  5
   INSTANCE: SUSPENSIONBRIDGE                                                                
 LARGEST CORRECTION TO ROTATION    -2.499E-03   AT NODE      10001   DOF  5
   INSTANCE: SUSPENSIONBRIDGE                                                                
          ROTATION CORRECTION TOO LARGE COMPARED TO ROTATION INCREMENT

  NUMBER OF EQUATIONS =      4716     NUMBER OF FLOATING PT. OPERATIONS =  1.30E+06

  USING THE DIRECT SOLVER WITH   4 PROCESSORS

     CHECK POINT   START OF SOLVER    

     CHECK POINT  END OF SOLVER       

       ELAPSED USER TIME (SEC)      =  0.10000    
       ELAPSED SYSTEM TIME (SEC)    =   0.0000    
       ELAPSED TOTAL CPU TIME (SEC) =  0.10000    
       ELAPSED WALLCLOCK TIME (SEC) =          0

               CONVERGENCE CHECKS FOR EQUILIBRIUM ITERATION     4


 AVERAGE FORCE                      4.659E+07   TIME AVG. FORCE       4.526E+07
 LARGEST RESIDUAL FORCE             -790.       AT NODE      10022   DOF  1
   INSTANCE: SUSPENSIONBRIDGE                                                                
 LARGEST INCREMENT OF DISP.         0.356       AT NODE      10023   DOF  3
   INSTANCE: SUSPENSIONBRIDGE                                                                
 LARGEST CORRECTION TO DISP.        4.190E-02   AT NODE      10025   DOF  3
   INSTANCE: SUSPENSIONBRIDGE                                                                
          DISP.    CORRECTION TOO LARGE COMPARED TO DISP.    INCREMENT

 AVERAGE MOMENT                     8.877E+07   TIME AVG. MOMENT      8.871E+07
 LARGEST RESIDUAL MOMENT             204.       AT NODE     100072   DOF  6
   INSTANCE: SUSPENSIONBRIDGE                                                                
 LARGEST INCREMENT OF ROTATION     -1.726E-03   AT NODE      10001   DOF  5
   INSTANCE: SUSPENSIONBRIDGE                                                                
 LARGEST CORRECTION TO ROTATION    -2.300E-04   AT NODE      10019   DOF  5
   INSTANCE: SUSPENSIONBRIDGE                                                                
          ROTATION CORRECTION TOO LARGE COMPARED TO ROTATION INCREMENT

  NUMBER OF EQUATIONS =      4716     NUMBER OF FLOATING PT. OPERATIONS =  1.30E+06

  USING THE DIRECT SOLVER WITH   4 PROCESSORS

     CHECK POINT   START OF SOLVER    

     CHECK POINT  END OF SOLVER       

       ELAPSED USER TIME (SEC)      =  0.10000    
       ELAPSED SYSTEM TIME (SEC)    =   0.0000    
       ELAPSED TOTAL CPU TIME (SEC) =  0.10000    
       ELAPSED WALLCLOCK TIME (SEC) =          0

               CONVERGENCE CHECKS FOR EQUILIBRIUM ITERATION     5


 AVERAGE FORCE                      4.427E+07   TIME AVG. FORCE       4.410E+07
 LARGEST RESIDUAL FORCE            -1.928E+04   AT NODE      20051   DOF  3
   INSTANCE: SUSPENSIONBRIDGE                                                                
 LARGEST INCREMENT OF DISP.         0.583       AT NODE      10022   DOF  3
   INSTANCE: SUSPENSIONBRIDGE                                                                
 LARGEST CORRECTION TO DISP.        0.227       AT NODE      10022   DOF  3
   INSTANCE: SUSPENSIONBRIDGE                                                                
          DISP.    CORRECTION TOO LARGE COMPARED TO DISP.    INCREMENT

 AVERAGE MOMENT                     8.863E+07   TIME AVG. MOMENT      8.864E+07
 LARGEST RESIDUAL MOMENT             625.       AT NODE     110072   DOF  6
   INSTANCE: SUSPENSIONBRIDGE                                                                
 LARGEST INCREMENT OF ROTATION     -2.875E-03   AT NODE      10001   DOF  5
   INSTANCE: SUSPENSIONBRIDGE                                                                
 LARGEST CORRECTION TO ROTATION    -1.149E-03   AT NODE      20001   DOF  5
   INSTANCE: SUSPENSIONBRIDGE                                                                
          ROTATION CORRECTION TOO LARGE COMPARED TO ROTATION INCREMENT

  NUMBER OF EQUATIONS =      4716     NUMBER OF FLOATING PT. OPERATIONS =  1.30E+06

  USING THE DIRECT SOLVER WITH   4 PROCESSORS

     CHECK POINT   START OF SOLVER    

     CHECK POINT  END OF SOLVER       

       ELAPSED USER TIME (SEC)      =  0.10000    
       ELAPSED SYSTEM TIME (SEC)    =  0.10000    
       ELAPSED TOTAL CPU TIME (SEC) =  0.20000    
       ELAPSED WALLCLOCK TIME (SEC) =          0

               CONVERGENCE CHECKS FOR EQUILIBRIUM ITERATION     6


 AVERAGE FORCE                      5.093E+07   TIME AVG. FORCE       4.744E+07
 LARGEST RESIDUAL FORCE             -104.       AT NODE      20020   DOF  1
   INSTANCE: SUSPENSIONBRIDGE                                                                
 LARGEST INCREMENT OF DISP.         0.604       AT NODE      10023   DOF  3
   INSTANCE: SUSPENSIONBRIDGE                                                                
 LARGEST CORRECTION TO DISP.        2.209E-02   AT NODE      10025   DOF  3
   INSTANCE: SUSPENSIONBRIDGE                                                                
 ESTIMATE OF DISP.    CORRECTION    2.919E-03
 FORCE     EQUILIB. ACCEPTED BASED ON SMALL RESIDUAL AND ESTIMATED CORRECTION

 AVERAGE MOMENT                     8.863E+07   TIME AVG. MOMENT      8.864E+07
 LARGEST RESIDUAL MOMENT            -16.2       AT NODE     110072   DOF  6
   INSTANCE: SUSPENSIONBRIDGE                                                                
 LARGEST INCREMENT OF ROTATION     -2.926E-03   AT NODE      10001   DOF  5
   INSTANCE: SUSPENSIONBRIDGE                                                                
 LARGEST CORRECTION TO ROTATION    -9.808E-05   AT NODE      10017   DOF  5
   INSTANCE: SUSPENSIONBRIDGE                                                                
 ESTIMATE OF ROTATION CORRECTION    7.805E-06
 MOMENT    EQUILIB. ACCEPTED BASED ON SMALL RESIDUAL AND ESTIMATED CORRECTION

 ITERATION SUMMARY FOR THE INCREMENT:   6 TOTAL ITERATIONS, OF WHICH
   0 ARE SEVERE DISCONTINUITY ITERATIONS AND  6 ARE EQUILIBRIUM ITERATIONS.

 TIME INCREMENT COMPLETED  1.000E-06,  FRACTION OF STEP COMPLETED  2.000E-06
 STEP TIME COMPLETED       2.000E-06,  TOTAL TIME COMPLETED         1.00    


  INCREMENT     3 STARTS. ATTEMPT NUMBER  1, TIME INCREMENT  1.000E-06

  NUMBER OF EQUATIONS =      4716     NUMBER OF FLOATING PT. OPERATIONS =  1.30E+06

  USING THE DIRECT SOLVER WITH   4 PROCESSORS

     CHECK POINT   START OF SOLVER    

     CHECK POINT  END OF SOLVER       

       ELAPSED USER TIME (SEC)      =  0.10000    
       ELAPSED SYSTEM TIME (SEC)    =   0.0000    
       ELAPSED TOTAL CPU TIME (SEC) =  0.10000    
       ELAPSED WALLCLOCK TIME (SEC) =          0

               CONVERGENCE CHECKS FOR EQUILIBRIUM ITERATION     1


 AVERAGE FORCE                      3.469E+07   TIME AVG. FORCE       4.319E+07
 LARGEST RESIDUAL FORCE            -4.426E+05   AT NODE      10051   DOF  3
   INSTANCE: SUSPENSIONBRIDGE                                                                
 LARGEST INCREMENT OF DISP.        -0.321       AT NODE      10026   DOF  3
   INSTANCE: SUSPENSIONBRIDGE                                                                
 LARGEST CORRECTION TO DISP.       -0.922       AT NODE      10024   DOF  3
   INSTANCE: SUSPENSIONBRIDGE                                                                
          FORCE     EQUILIBRIUM NOT ACHIEVED WITHIN TOLERANCE.

 AVERAGE MOMENT                     8.867E+07   TIME AVG. MOMENT      8.865E+07
 LARGEST RESIDUAL MOMENT            1.611E+03   AT NODE     100072   DOF  6
   INSTANCE: SUSPENSIONBRIDGE                                                                
 LARGEST INCREMENT OF ROTATION      1.590E-03   AT NODE      10001   DOF  5
   INSTANCE: SUSPENSIONBRIDGE                                                                
 LARGEST CORRECTION TO ROTATION     4.516E-03   AT NODE      10001   DOF  5
   INSTANCE: SUSPENSIONBRIDGE                                                                
          ROTATION CORRECTION TOO LARGE COMPARED TO ROTATION INCREMENT

  NUMBER OF EQUATIONS =      4716     NUMBER OF FLOATING PT. OPERATIONS =  1.30E+06

  USING THE DIRECT SOLVER WITH   4 PROCESSORS

     CHECK POINT   START OF SOLVER    

     CHECK POINT  END OF SOLVER       

       ELAPSED USER TIME (SEC)      =   0.0000    
       ELAPSED SYSTEM TIME (SEC)    =   0.0000    
       ELAPSED TOTAL CPU TIME (SEC) =   0.0000    
       ELAPSED WALLCLOCK TIME (SEC) =          0

               CONVERGENCE CHECKS FOR EQUILIBRIUM ITERATION     2


 AVERAGE FORCE                      4.690E+07   TIME AVG. FORCE       4.726E+07
 LARGEST RESIDUAL FORCE             -196.       AT NODE     110075   DOF  3
   INSTANCE: SUSPENSIONBRIDGE                                                                
 LARGEST INCREMENT OF DISP.        -0.308       AT NODE      10026   DOF  3
   INSTANCE: SUSPENSIONBRIDGE                                                                
 LARGEST CORRECTION TO DISP.        1.360E-02   AT NODE      10115   DOF  3
   INSTANCE: SUSPENSIONBRIDGE                                                                
 ESTIMATE OF DISP.    CORRECTION    8.427E-06
 FORCE     EQUILIB. ACCEPTED BASED ON SMALL RESIDUAL AND ESTIMATED CORRECTION

 AVERAGE MOMENT                     8.887E+07   TIME AVG. MOMENT      8.872E+07
 LARGEST RESIDUAL MOMENT            -905.       AT NODE     110072   DOF  6
   INSTANCE: SUSPENSIONBRIDGE                                                                
 LARGEST INCREMENT OF ROTATION      1.570E-03   AT NODE      10001   DOF  5
   INSTANCE: SUSPENSIONBRIDGE                                                                
 LARGEST CORRECTION TO ROTATION    -8.821E-05   AT NODE      10021   DOF  5
   INSTANCE: SUSPENSIONBRIDGE                                                                
          ROTATION CORRECTION TOO LARGE COMPARED TO ROTATION INCREMENT

  NUMBER OF EQUATIONS =      4716     NUMBER OF FLOATING PT. OPERATIONS =  1.30E+06

  USING THE DIRECT SOLVER WITH   4 PROCESSORS

     CHECK POINT   START OF SOLVER    

     CHECK POINT  END OF SOLVER       

       ELAPSED USER TIME (SEC)      =  0.10000    
       ELAPSED SYSTEM TIME (SEC)    =   0.0000    
       ELAPSED TOTAL CPU TIME (SEC) =  0.10000    
       ELAPSED WALLCLOCK TIME (SEC) =          1

               CONVERGENCE CHECKS FOR EQUILIBRIUM ITERATION     3


 AVERAGE FORCE                      4.232E+07   TIME AVG. FORCE       4.573E+07
 LARGEST RESIDUAL FORCE            -2.084E+04   AT NODE      10051   DOF  3
   INSTANCE: SUSPENSIONBRIDGE                                                                
 LARGEST INCREMENT OF DISP.        -0.179       AT NODE      10194   DOF  3
   INSTANCE: SUSPENSIONBRIDGE                                                                
 LARGEST CORRECTION TO DISP.        0.172       AT NODE      10024   DOF  3
   INSTANCE: SUSPENSIONBRIDGE                                                                
          DISP.    CORRECTION TOO LARGE COMPARED TO DISP.    INCREMENT

 AVERAGE MOMENT                     8.874E+07   TIME AVG. MOMENT      8.867E+07
 LARGEST RESIDUAL MOMENT             508.       AT NODE     110072   DOF  6
   INSTANCE: SUSPENSIONBRIDGE                                                                
 LARGEST INCREMENT OF ROTATION     -9.044E-04   AT NODE      20219   DOF  5
   INSTANCE: SUSPENSIONBRIDGE                                                                
 LARGEST CORRECTION TO ROTATION    -8.933E-04   AT NODE      10001   DOF  5
   INSTANCE: SUSPENSIONBRIDGE                                                                
          ROTATION CORRECTION TOO LARGE COMPARED TO ROTATION INCREMENT

  NUMBER OF EQUATIONS =      4716     NUMBER OF FLOATING PT. OPERATIONS =  1.30E+06

  USING THE DIRECT SOLVER WITH   4 PROCESSORS

     CHECK POINT   START OF SOLVER    

     CHECK POINT  END OF SOLVER       

       ELAPSED USER TIME (SEC)      =  0.10000    
       ELAPSED SYSTEM TIME (SEC)    =   0.0000    
       ELAPSED TOTAL CPU TIME (SEC) =  0.10000    
       ELAPSED WALLCLOCK TIME (SEC) =          0

               CONVERGENCE CHECKS FOR EQUILIBRIUM ITERATION     4


 AVERAGE FORCE                      4.690E+07   TIME AVG. FORCE       4.726E+07
 LARGEST RESIDUAL FORCE             -37.2       AT NODE      20051   DOF  3
   INSTANCE: SUSPENSIONBRIDGE                                                                
 LARGEST INCREMENT OF DISP.        -0.172       AT NODE      10194   DOF  3
   INSTANCE: SUSPENSIONBRIDGE                                                                
 LARGEST CORRECTION TO DISP.        1.404E-02   AT NODE      10025   DOF  3
   INSTANCE: SUSPENSIONBRIDGE                                                                
          DISP.    CORRECTION TOO LARGE COMPARED TO DISP.    INCREMENT

 AVERAGE MOMENT                     8.874E+07   TIME AVG. MOMENT      8.867E+07
 LARGEST RESIDUAL MOMENT            -2.58       AT NODE     110072   DOF  6
   INSTANCE: SUSPENSIONBRIDGE                                                                
 LARGEST INCREMENT OF ROTATION     -8.790E-04   AT NODE      20219   DOF  5
   INSTANCE: SUSPENSIONBRIDGE                                                                
 LARGEST CORRECTION TO ROTATION    -5.201E-05   AT NODE      10014   DOF  5
   INSTANCE: SUSPENSIONBRIDGE                                                                
 ESTIMATE OF ROTATION CORRECTION    2.644E-07
 MOMENT    EQUILIB. ACCEPTED BASED ON SMALL RESIDUAL AND ESTIMATED CORRECTION

  NUMBER OF EQUATIONS =      4716     NUMBER OF FLOATING PT. OPERATIONS =  1.30E+06

  USING THE DIRECT SOLVER WITH   4 PROCESSORS

     CHECK POINT   START OF SOLVER    

     CHECK POINT  END OF SOLVER       

       ELAPSED USER TIME (SEC)      =   0.0000    
       ELAPSED SYSTEM TIME (SEC)    =   0.0000    
       ELAPSED TOTAL CPU TIME (SEC) =   0.0000    
       ELAPSED WALLCLOCK TIME (SEC) =          0

               CONVERGENCE CHECKS FOR EQUILIBRIUM ITERATION     5


 AVERAGE FORCE                      4.690E+07   TIME AVG. FORCE       4.726E+07
 LARGEST RESIDUAL FORCE             -187.       AT NODE      10051   DOF  3
   INSTANCE: SUSPENSIONBRIDGE                                                                
 LARGEST INCREMENT OF DISP.        -0.168       AT NODE      20194   DOF  3
   INSTANCE: SUSPENSIONBRIDGE                                                                
 LARGEST CORRECTION TO DISP.        1.441E-02   AT NODE      10018   DOF  3
   INSTANCE: SUSPENSIONBRIDGE                                                                
          DISP.    CORRECTION TOO LARGE COMPARED TO DISP.    INCREMENT

 AVERAGE MOMENT                     8.873E+07   TIME AVG. MOMENT      8.867E+07
 LARGEST RESIDUAL MOMENT            -38.0       AT NODE     100072   DOF  6
   INSTANCE: SUSPENSIONBRIDGE                                                                
 LARGEST INCREMENT OF ROTATION     -8.481E-04   AT NODE      10219   DOF  5
   INSTANCE: SUSPENSIONBRIDGE                                                                
 LARGEST CORRECTION TO ROTATION    -9.888E-05   AT NODE      10001   DOF  5
   INSTANCE: SUSPENSIONBRIDGE                                                                
          ROTATION CORRECTION TOO LARGE COMPARED TO ROTATION INCREMENT

  NUMBER OF EQUATIONS =      4716     NUMBER OF FLOATING PT. OPERATIONS =  1.30E+06

  USING THE DIRECT SOLVER WITH   4 PROCESSORS

     CHECK POINT   START OF SOLVER    

     CHECK POINT  END OF SOLVER       

       ELAPSED USER TIME (SEC)      =  0.10000    
       ELAPSED SYSTEM TIME (SEC)    =   0.0000    
       ELAPSED TOTAL CPU TIME (SEC) =  0.10000    
       ELAPSED WALLCLOCK TIME (SEC) =          0

               CONVERGENCE CHECKS FOR EQUILIBRIUM ITERATION     6


 AVERAGE FORCE                      4.690E+07   TIME AVG. FORCE       4.726E+07
 LARGEST RESIDUAL FORCE             0.235       AT NODE     100005   DOF  1
   INSTANCE: SUSPENSIONBRIDGE                                                                
 LARGEST INCREMENT OF DISP.        -0.168       AT NODE      20194   DOF  3
   INSTANCE: SUSPENSIONBRIDGE                                                                
 LARGEST CORRECTION TO DISP.        2.732E-04   AT NODE      10019   DOF  3
   INSTANCE: SUSPENSIONBRIDGE                                                                
          THE FORCE     EQUILIBRIUM EQUATIONS HAVE CONVERGED

 AVERAGE MOMENT                     8.873E+07   TIME AVG. MOMENT      8.867E+07
 LARGEST RESIDUAL MOMENT            -1.15       AT NODE     100005   DOF  6
   INSTANCE: SUSPENSIONBRIDGE                                                                
 LARGEST INCREMENT OF ROTATION     -8.479E-04   AT NODE      10219   DOF  5
   INSTANCE: SUSPENSIONBRIDGE                                                                
 LARGEST CORRECTION TO ROTATION    -1.782E-06   AT NODE      10001   DOF  5
   INSTANCE: SUSPENSIONBRIDGE                                                                
          THE MOMENT    EQUILIBRIUM EQUATIONS HAVE CONVERGED

 ITERATION SUMMARY FOR THE INCREMENT:   6 TOTAL ITERATIONS, OF WHICH
   0 ARE SEVERE DISCONTINUITY ITERATIONS AND  6 ARE EQUILIBRIUM ITERATIONS.

 TIME INCREMENT COMPLETED  1.000E-06,  FRACTION OF STEP COMPLETED  3.000E-06
 STEP TIME COMPLETED       3.000E-06,  TOTAL TIME COMPLETED         1.00    


  INCREMENT     4 STARTS. ATTEMPT NUMBER  1, TIME INCREMENT  1.000E-06

  NUMBER OF EQUATIONS =      4716     NUMBER OF FLOATING PT. OPERATIONS =  1.30E+06

  USING THE DIRECT SOLVER WITH   4 PROCESSORS

     CHECK POINT   START OF SOLVER    

     CHECK POINT  END OF SOLVER       

       ELAPSED USER TIME (SEC)      =  0.10000    
       ELAPSED SYSTEM TIME (SEC)    =   0.0000    
       ELAPSED TOTAL CPU TIME (SEC) =  0.10000    
       ELAPSED WALLCLOCK TIME (SEC) =          0

               CONVERGENCE CHECKS FOR EQUILIBRIUM ITERATION     1


 AVERAGE FORCE                      4.690E+07   TIME AVG. FORCE       4.717E+07
 LARGEST RESIDUAL FORCE             -710.       AT NODE      20169   DOF  3
   INSTANCE: SUSPENSIONBRIDGE                                                                
 LARGEST INCREMENT OF DISP.        -0.132       AT NODE      10194   DOF  3
   INSTANCE: SUSPENSIONBRIDGE                                                                
 LARGEST CORRECTION TO DISP.        3.595E-02   AT NODE      20194   DOF  3
   INSTANCE: SUSPENSIONBRIDGE                                                                
 ESTIMATE OF DISP.    CORRECTION    9.731E-04
 FORCE     EQUILIB. ACCEPTED BASED ON SMALL RESIDUAL AND ESTIMATED CORRECTION

 AVERAGE MOMENT                     8.883E+07   TIME AVG. MOMENT      8.871E+07
 LARGEST RESIDUAL MOMENT            -62.4       AT NODE     110072   DOF  6
   INSTANCE: SUSPENSIONBRIDGE                                                                
 LARGEST INCREMENT OF ROTATION     -6.890E-04   AT NODE      10219   DOF  5
   INSTANCE: SUSPENSIONBRIDGE                                                                
 LARGEST CORRECTION TO ROTATION     1.589E-04   AT NODE      10219   DOF  5
   INSTANCE: SUSPENSIONBRIDGE                                                                
          ROTATION CORRECTION TOO LARGE COMPARED TO ROTATION INCREMENT

  NUMBER OF EQUATIONS =      4716     NUMBER OF FLOATING PT. OPERATIONS =  1.30E+06

  USING THE DIRECT SOLVER WITH   4 PROCESSORS

     CHECK POINT   START OF SOLVER    

     CHECK POINT  END OF SOLVER       

       ELAPSED USER TIME (SEC)      =  0.10000    
       ELAPSED SYSTEM TIME (SEC)    =   0.0000    
       ELAPSED TOTAL CPU TIME (SEC) =  0.10000    
       ELAPSED WALLCLOCK TIME (SEC) =          0

               CONVERGENCE CHECKS FOR EQUILIBRIUM ITERATION     2


 AVERAGE FORCE                      4.690E+07   TIME AVG. FORCE       4.717E+07
 LARGEST RESIDUAL FORCE             -3.04       AT NODE      20169   DOF  3
   INSTANCE: SUSPENSIONBRIDGE                                                                
 LARGEST INCREMENT OF DISP.        -0.134       AT NODE      20194   DOF  3
   INSTANCE: SUSPENSIONBRIDGE                                                                
 LARGEST CORRECTION TO DISP.       -2.102E-03   AT NODE      10083   DOF  3
   INSTANCE: SUSPENSIONBRIDGE                                                                
 ESTIMATE OF DISP.    CORRECTION   -8.984E-06
 FORCE     EQUILIB. ACCEPTED BASED ON SMALL RESIDUAL AND ESTIMATED CORRECTION

 AVERAGE MOMENT                     8.883E+07   TIME AVG. MOMENT      8.871E+07
 LARGEST RESIDUAL MOMENT             5.89       AT NODE     210072   DOF  6
   INSTANCE: SUSPENSIONBRIDGE                                                                
 LARGEST INCREMENT OF ROTATION     -6.964E-04   AT NODE      20219   DOF  5
   INSTANCE: SUSPENSIONBRIDGE                                                                
 LARGEST CORRECTION TO ROTATION    -1.134E-05   AT NODE      20001   DOF  5
   INSTANCE: SUSPENSIONBRIDGE                                                                
 ESTIMATE OF ROTATION CORRECTION   -3.907E-06
 MOMENT    EQUILIB. ACCEPTED BASED ON SMALL RESIDUAL AND ESTIMATED CORRECTION

 ITERATION SUMMARY FOR THE INCREMENT:   2 TOTAL ITERATIONS, OF WHICH
   0 ARE SEVERE DISCONTINUITY ITERATIONS AND  2 ARE EQUILIBRIUM ITERATIONS.

 TIME INCREMENT COMPLETED  1.000E-06,  FRACTION OF STEP COMPLETED  4.000E-06
 STEP TIME COMPLETED       4.000E-06,  TOTAL TIME COMPLETED         1.00    


  INCREMENT     5 STARTS. ATTEMPT NUMBER  1, TIME INCREMENT  1.000E-06

  NUMBER OF EQUATIONS =      4716     NUMBER OF FLOATING PT. OPERATIONS =  1.30E+06

  USING THE DIRECT SOLVER WITH   4 PROCESSORS

     CHECK POINT   START OF SOLVER    

     CHECK POINT  END OF SOLVER       

       ELAPSED USER TIME (SEC)      =  0.10000    
       ELAPSED SYSTEM TIME (SEC)    =   0.0000    
       ELAPSED TOTAL CPU TIME (SEC) =  0.10000    
       ELAPSED WALLCLOCK TIME (SEC) =          0

               CONVERGENCE CHECKS FOR EQUILIBRIUM ITERATION     1


 AVERAGE FORCE                      4.500E+07   TIME AVG. FORCE       4.673E+07
 LARGEST RESIDUAL FORCE             -290.       AT NODE      10051   DOF  3
   INSTANCE: SUSPENSIONBRIDGE                                                                
 LARGEST INCREMENT OF DISP.        -0.111       AT NODE      10194   DOF  3
   INSTANCE: SUSPENSIONBRIDGE                                                                
 LARGEST CORRECTION TO DISP.        2.363E-02   AT NODE      20195   DOF  3
   INSTANCE: SUSPENSIONBRIDGE                                                                
 ESTIMATE OF DISP.    CORRECTION    3.635E-04
 FORCE     EQUILIB. ACCEPTED BASED ON SMALL RESIDUAL AND ESTIMATED CORRECTION

 AVERAGE MOMENT                     8.892E+07   TIME AVG. MOMENT      8.875E+07
 LARGEST RESIDUAL MOMENT             30.6       AT NODE     110072   DOF  6
   INSTANCE: SUSPENSIONBRIDGE                                                                
 LARGEST INCREMENT OF ROTATION     -5.801E-04   AT NODE      10219   DOF  5
   INSTANCE: SUSPENSIONBRIDGE                                                                
 LARGEST CORRECTION TO ROTATION     1.163E-04   AT NODE      20219   DOF  5
   INSTANCE: SUSPENSIONBRIDGE                                                                
          ROTATION CORRECTION TOO LARGE COMPARED TO ROTATION INCREMENT

  NUMBER OF EQUATIONS =      4716     NUMBER OF FLOATING PT. OPERATIONS =  1.30E+06

  USING THE DIRECT SOLVER WITH   4 PROCESSORS

     CHECK POINT   START OF SOLVER    

     CHECK POINT  END OF SOLVER       

       ELAPSED USER TIME (SEC)      =  0.20000    
       ELAPSED SYSTEM TIME (SEC)    =   0.0000    
       ELAPSED TOTAL CPU TIME (SEC) =  0.20000    
       ELAPSED WALLCLOCK TIME (SEC) =          0

               CONVERGENCE CHECKS FOR EQUILIBRIUM ITERATION     2


 AVERAGE FORCE                      4.611E+07   TIME AVG. FORCE       4.695E+07
 LARGEST RESIDUAL FORCE            -0.786       AT NODE      20051   DOF  3
   INSTANCE: SUSPENSIONBRIDGE                                                                
 LARGEST INCREMENT OF DISP.        -0.112       AT NODE      10194   DOF  3
   INSTANCE: SUSPENSIONBRIDGE                                                                
 LARGEST CORRECTION TO DISP.       -1.100E-03   AT NODE      20194   DOF  3
   INSTANCE: SUSPENSIONBRIDGE                                                                
          THE FORCE     EQUILIBRIUM EQUATIONS HAVE CONVERGED

 AVERAGE MOMENT                     8.893E+07   TIME AVG. MOMENT      8.875E+07
 LARGEST RESIDUAL MOMENT             3.39       AT NODE     210072   DOF  6
   INSTANCE: SUSPENSIONBRIDGE                                                                
 LARGEST INCREMENT OF ROTATION     -5.851E-04   AT NODE      10219   DOF  5
   INSTANCE: SUSPENSIONBRIDGE                                                                
 LARGEST CORRECTION TO ROTATION    -5.052E-06   AT NODE      20219   DOF  5
   INSTANCE: SUSPENSIONBRIDGE                                                                
          THE MOMENT    EQUILIBRIUM EQUATIONS HAVE CONVERGED
          TIME INCREMENT MAY NOW INCREASE TO    1.500E-06

 ITERATION SUMMARY FOR THE INCREMENT:   2 TOTAL ITERATIONS, OF WHICH
   0 ARE SEVERE DISCONTINUITY ITERATIONS AND  2 ARE EQUILIBRIUM ITERATIONS.

 TIME INCREMENT COMPLETED  1.000E-06,  FRACTION OF STEP COMPLETED  5.000E-06
 STEP TIME COMPLETED       5.000E-06,  TOTAL TIME COMPLETED         1.00    


  INCREMENT     6 STARTS. ATTEMPT NUMBER  1, TIME INCREMENT  1.500E-06

  NUMBER OF EQUATIONS =      4716     NUMBER OF FLOATING PT. OPERATIONS =  1.30E+06

  USING THE DIRECT SOLVER WITH   4 PROCESSORS

     CHECK POINT   START OF SOLVER    

     CHECK POINT  END OF SOLVER       

       ELAPSED USER TIME (SEC)      =  0.20000    
       ELAPSED SYSTEM TIME (SEC)    =  0.10000    
       ELAPSED TOTAL CPU TIME (SEC) =  0.30000    
       ELAPSED WALLCLOCK TIME (SEC) =          1

               CONVERGENCE CHECKS FOR EQUILIBRIUM ITERATION     1


 AVERAGE FORCE                      4.394E+07   TIME AVG. FORCE       4.645E+07
 LARGEST RESIDUAL FORCE             -425.       AT NODE      20051   DOF  3
   INSTANCE: SUSPENSIONBRIDGE                                                                
 LARGEST INCREMENT OF DISP.        -0.139       AT NODE      10194   DOF  3
   INSTANCE: SUSPENSIONBRIDGE                                                                
 LARGEST CORRECTION TO DISP.        2.879E-02   AT NODE      20194   DOF  3
   INSTANCE: SUSPENSIONBRIDGE                                                                
 ESTIMATE OF DISP.    CORRECTION    4.970E-04
 FORCE     EQUILIB. ACCEPTED BASED ON SMALL RESIDUAL AND ESTIMATED CORRECTION

 AVERAGE MOMENT                     8.905E+07   TIME AVG. MOMENT      8.880E+07
 LARGEST RESIDUAL MOMENT            -41.3       AT NODE     210072   DOF  6
   INSTANCE: SUSPENSIONBRIDGE                                                                
 LARGEST INCREMENT OF ROTATION     -7.344E-04   AT NODE      10219   DOF  5
   INSTANCE: SUSPENSIONBRIDGE                                                                
 LARGEST CORRECTION TO ROTATION     1.433E-04   AT NODE      20219   DOF  5
   INSTANCE: SUSPENSIONBRIDGE                                                                
          ROTATION CORRECTION TOO LARGE COMPARED TO ROTATION INCREMENT

  NUMBER OF EQUATIONS =      4716     NUMBER OF FLOATING PT. OPERATIONS =  1.30E+06

  USING THE DIRECT SOLVER WITH   4 PROCESSORS

     CHECK POINT   START OF SOLVER    

     CHECK POINT  END OF SOLVER       

       ELAPSED USER TIME (SEC)      =  0.20000    
       ELAPSED SYSTEM TIME (SEC)    =   0.0000    
       ELAPSED TOTAL CPU TIME (SEC) =  0.20000    
       ELAPSED WALLCLOCK TIME (SEC) =          0

               CONVERGENCE CHECKS FOR EQUILIBRIUM ITERATION     2


 AVERAGE FORCE                      4.394E+07   TIME AVG. FORCE       4.645E+07
 LARGEST RESIDUAL FORCE             -1.52       AT NODE      10051   DOF  3
   INSTANCE: SUSPENSIONBRIDGE                                                                
 LARGEST INCREMENT OF DISP.        -0.140       AT NODE      10194   DOF  3
   INSTANCE: SUSPENSIONBRIDGE                                                                
 LARGEST CORRECTION TO DISP.       -1.551E-03   AT NODE      10194   DOF  3
   INSTANCE: SUSPENSIONBRIDGE                                                                
 ESTIMATE OF DISP.    CORRECTION   -5.567E-06
 FORCE     EQUILIB. ACCEPTED BASED ON SMALL RESIDUAL AND ESTIMATED CORRECTION

 AVERAGE MOMENT                     8.905E+07   TIME AVG. MOMENT      8.880E+07
 LARGEST RESIDUAL MOMENT             5.26       AT NODE     210072   DOF  6
   INSTANCE: SUSPENSIONBRIDGE                                                                
 LARGEST INCREMENT OF ROTATION     -7.416E-04   AT NODE      10219   DOF  5
[...]
   INSTANCE: SUSPENSIONBRIDGE                                                                
 LARGEST INCREMENT OF DISP.        -1.135E-04   AT NODE      20112   DOF  3
   INSTANCE: SUSPENSIONBRIDGE                                                                
 LARGEST CORRECTION TO DISP.        2.655E-09   AT NODE      10112   DOF  3
   INSTANCE: SUSPENSIONBRIDGE                                                                
          THE FORCE     EQUILIBRIUM RESPONSE WAS LINEAR IN THIS INCREMENT

 AVERAGE MOMENT                     3.375E+07   TIME AVG. MOMENT      3.322E+07
 LARGEST RESIDUAL MOMENT            -1.56       AT NODE     100005   DOF  6
   INSTANCE: SUSPENSIONBRIDGE                                                                
 LARGEST INCREMENT OF ROTATION     -3.623E-06   AT NODE      10113   DOF  5
   INSTANCE: SUSPENSIONBRIDGE                                                                
 LARGEST CORRECTION TO ROTATION    -7.370E-09   AT NODE      10049   DOF  4
   INSTANCE: SUSPENSIONBRIDGE                                                                
          THE MOMENT    EQUILIBRIUM EQUATIONS HAVE CONVERGED
          TIME INCREMENT MAY NOW INCREASE TO    0.225    

 ITERATION SUMMARY FOR THE INCREMENT:   1 TOTAL ITERATIONS, OF WHICH
   0 ARE SEVERE DISCONTINUITY ITERATIONS AND  1 ARE EQUILIBRIUM ITERATIONS.

 TIME INCREMENT COMPLETED  0.150    ,  FRACTION OF STEP COMPLETED  0.350    
 STEP TIME COMPLETED       0.350    ,  TOTAL TIME COMPLETED         3.35    


  INCREMENT     4 STARTS. ATTEMPT NUMBER  1, TIME INCREMENT  0.225    

  NUMBER OF EQUATIONS =     17738     NUMBER OF FLOATING PT. OPERATIONS =  4.48E+07

  USING THE DIRECT SOLVER WITH   4 PROCESSORS

     CHECK POINT   START OF SOLVER    

     CHECK POINT  END OF SOLVER       

       ELAPSED USER TIME (SEC)      =  0.30000    
       ELAPSED SYSTEM TIME (SEC)    =  0.10000    
       ELAPSED TOTAL CPU TIME (SEC) =  0.40000    
       ELAPSED WALLCLOCK TIME (SEC) =          0

               CONVERGENCE CHECKS FOR EQUILIBRIUM ITERATION     1


 AVERAGE FORCE                      4.395E+07   TIME AVG. FORCE       4.385E+07
 LARGEST RESIDUAL FORCE             0.377       AT NODE     201007   DOF  1
   INSTANCE: SUSPENSIONBRIDGE                                                                
 LARGEST INCREMENT OF DISP.        -1.703E-04   AT NODE      20112   DOF  3
   INSTANCE: SUSPENSIONBRIDGE                                                                
 LARGEST CORRECTION TO DISP.        5.427E-09   AT NODE      10112   DOF  3
   INSTANCE: SUSPENSIONBRIDGE                                                                
          THE FORCE     EQUILIBRIUM RESPONSE WAS LINEAR IN THIS INCREMENT

 AVERAGE MOMENT                     3.376E+07   TIME AVG. MOMENT      3.336E+07
 LARGEST RESIDUAL MOMENT            -2.06       AT NODE     210005   DOF  6
   INSTANCE: SUSPENSIONBRIDGE                                                                
 LARGEST INCREMENT OF ROTATION     -5.435E-06   AT NODE      10113   DOF  5
   INSTANCE: SUSPENSIONBRIDGE                                                                
 LARGEST CORRECTION TO ROTATION     5.748E-09   AT NODE      10048   DOF  4
   INSTANCE: SUSPENSIONBRIDGE                                                                
          THE MOMENT    EQUILIBRIUM EQUATIONS HAVE CONVERGED
          TIME INCREMENT MAY NOW INCREASE TO    0.338    

 ITERATION SUMMARY FOR THE INCREMENT:   1 TOTAL ITERATIONS, OF WHICH
   0 ARE SEVERE DISCONTINUITY ITERATIONS AND  1 ARE EQUILIBRIUM ITERATIONS.

 TIME INCREMENT COMPLETED  0.225    ,  FRACTION OF STEP COMPLETED  0.575    
 STEP TIME COMPLETED       0.575    ,  TOTAL TIME COMPLETED         3.58    


  INCREMENT     5 STARTS. ATTEMPT NUMBER  1, TIME INCREMENT  0.338    

  NUMBER OF EQUATIONS =     17738     NUMBER OF FLOATING PT. OPERATIONS =  4.48E+07

  USING THE DIRECT SOLVER WITH   4 PROCESSORS

     CHECK POINT   START OF SOLVER    

     CHECK POINT  END OF SOLVER       

       ELAPSED USER TIME (SEC)      =  0.30000    
       ELAPSED SYSTEM TIME (SEC)    =  0.10000    
       ELAPSED TOTAL CPU TIME (SEC) =  0.40000    
       ELAPSED WALLCLOCK TIME (SEC) =          0

               CONVERGENCE CHECKS FOR EQUILIBRIUM ITERATION     1


 AVERAGE FORCE                      4.397E+07   TIME AVG. FORCE       4.387E+07
 LARGEST RESIDUAL FORCE             8.343E-02   AT NODE     100005   DOF  1
   INSTANCE: SUSPENSIONBRIDGE                                                                
 LARGEST INCREMENT OF DISP.        -2.554E-04   AT NODE      20112   DOF  3
   INSTANCE: SUSPENSIONBRIDGE                                                                
 LARGEST CORRECTION TO DISP.        1.247E-08   AT NODE      20112   DOF  3
   INSTANCE: SUSPENSIONBRIDGE                                                                
          THE FORCE     EQUILIBRIUM RESPONSE WAS LINEAR IN THIS INCREMENT

 AVERAGE MOMENT                     3.370E+07   TIME AVG. MOMENT      3.342E+07
 LARGEST RESIDUAL MOMENT            0.413       AT NODE     200005   DOF  6
   INSTANCE: SUSPENSIONBRIDGE                                                                
 LARGEST INCREMENT OF ROTATION     -8.152E-06   AT NODE      10113   DOF  5
   INSTANCE: SUSPENSIONBRIDGE                                                                
 LARGEST CORRECTION TO ROTATION     1.694E-09   AT NODE      20050   DOF  4
   INSTANCE: SUSPENSIONBRIDGE                                                                
          THE MOMENT    EQUILIBRIUM EQUATIONS HAVE CONVERGED

 ITERATION SUMMARY FOR THE INCREMENT:   1 TOTAL ITERATIONS, OF WHICH
   0 ARE SEVERE DISCONTINUITY ITERATIONS AND  1 ARE EQUILIBRIUM ITERATIONS.

 TIME INCREMENT COMPLETED  0.338    ,  FRACTION OF STEP COMPLETED  0.913    
 STEP TIME COMPLETED       0.913    ,  TOTAL TIME COMPLETED         3.91    


  INCREMENT     6 STARTS. ATTEMPT NUMBER  1, TIME INCREMENT  8.750E-02

  NUMBER OF EQUATIONS =     17738     NUMBER OF FLOATING PT. OPERATIONS =  4.48E+07

  USING THE DIRECT SOLVER WITH   4 PROCESSORS

     CHECK POINT   START OF SOLVER    

     CHECK POINT  END OF SOLVER       

       ELAPSED USER TIME (SEC)      =  0.30000    
       ELAPSED SYSTEM TIME (SEC)    =  0.10000    
       ELAPSED TOTAL CPU TIME (SEC) =  0.40000    
       ELAPSED WALLCLOCK TIME (SEC) =          0

               CONVERGENCE CHECKS FOR EQUILIBRIUM ITERATION     1


 AVERAGE FORCE                      4.396E+07   TIME AVG. FORCE       4.389E+07
 LARGEST RESIDUAL FORCE             9.388E-02   AT NODE     210005   DOF  1
   INSTANCE: SUSPENSIONBRIDGE                                                                
 LARGEST INCREMENT OF DISP.        -6.620E-05   AT NODE      20112   DOF  3
   INSTANCE: SUSPENSIONBRIDGE                                                                
 LARGEST CORRECTION TO DISP.        2.438E-09   AT NODE      10112   DOF  3
   INSTANCE: SUSPENSIONBRIDGE                                                                
          THE FORCE     EQUILIBRIUM RESPONSE WAS LINEAR IN THIS INCREMENT

 AVERAGE MOMENT                     3.371E+07   TIME AVG. MOMENT      3.347E+07
 LARGEST RESIDUAL MOMENT           -0.395       AT NODE     200005   DOF  6
   INSTANCE: SUSPENSIONBRIDGE                                                                
 LARGEST INCREMENT OF ROTATION     -2.113E-06   AT NODE      10113   DOF  5
   INSTANCE: SUSPENSIONBRIDGE                                                                
 LARGEST CORRECTION TO ROTATION    -1.778E-09   AT NODE      10107   DOF  4
   INSTANCE: SUSPENSIONBRIDGE                                                                
          THE MOMENT    EQUILIBRIUM EQUATIONS HAVE CONVERGED

 ITERATION SUMMARY FOR THE INCREMENT:   1 TOTAL ITERATIONS, OF WHICH
   0 ARE SEVERE DISCONTINUITY ITERATIONS AND  1 ARE EQUILIBRIUM ITERATIONS.

 TIME INCREMENT COMPLETED  8.750E-02,  FRACTION OF STEP COMPLETED   1.00    
 STEP TIME COMPLETED        1.00    ,  TOTAL TIME COMPLETED         4.00    
1

   Abaqus 3DEXPERIENCE R2017x                                  Date 10-Apr-2023   Time 10:32:23
   For use by NTNU NORGES TEKNISK NATURVITENSKAPELIGE UNIVERSITET under license from Dassault Systemes or its subsidiary.

                                                                                 
                                                                                 
 STEP    5     INCREMENT     1     STEP TIME    0.00    


                        S T E P       5     C A L C U L A T I O N   O F   E I G E N V A L U E S

                                            F O R   N A T U R A L   F R E Q U E N C I E S



                                                                                          

     THE LANCZOS EIGENSOLVER IS USED FOR THIS ANALYSIS
     Abaqus WILL COMPUTE UNCOUPLED
      STRUCTURAL AND ACOUSTIC MODES
     NUMBER OF EIGENVALUES                    100
     HIGHEST FREQUENCY OF INTEREST                  1.00000E+18
     MAXIMUM NUMBER OF STEPS WITHIN RUN               35
     BLOCK SIZE FOR LANCZOS PROCEDURE                  7
     THE EIGENVECTORS ARE SCALED SO THAT 
      THE LARGEST DISPLACEMENT ENTRY IN EACH VECTOR
      IS UNITY
                              INITIAL STRESS AND DISPLACEMENT EFFECTS ARE
                              INCLUDED IN THE STIFFNESS MATRIX

     THIS IS A LINEAR PERTURBATION STEP.
     ALL LOADS ARE DEFINED AS CHANGE IN LOAD TO THE REFERENCE STATE

          LARGE DISPLACEMENT THEORY WILL BE USED

     EXTRAPOLATION WILL NOT BE USED

     CHARACTERISTIC ELEMENT LENGTH      15.8    

     DETAILS REGARDING ACTUAL SOLUTION WAVEFRONT REQUESTED

     DETAILED OUTPUT OF DIAGNOSTICS TO DATABASE REQUESTED

     PRINT OF INCREMENT NUMBER, TIME, ETC., TO THE MESSAGE FILE EVERY     1  INCREMENTS

 ***NOTE: SHARED MEMORY EXECUTION OF THE ELEMENT CALCULATIONS HAS BEEN TURNED 
          OFF DUE TO THE FOLLOWING FEATURE: SIM ARCHITECTURE IS NOT ACTIVE

     ELEMENT OPERATIONS WILL NOT BE CARRIED OUT IN PARALLEL

     COLLECTING STEP CONSTRAINT INFORMATION FOR OVERCONSTRAINT CHECKS

     CHECK POINT   START OF SOLVER    
  
 COMPUTER PRECISION USED BY ABAQUS      2.22045e-016
 CONVERGENCE CRITERION FOR LANCZOS RUN  1.81899e-012
  
 NUMBER OF EQUATIONS                                                           17738
 NUMBER OF UNRESTRAINED DEGREES OF FREEDOM                                     17650
 HEURISTIC SCALE FOR THE FIRST NONZERO EIGENVALUES (PROBLEM SCALE)  4.58075e-005
 INITIAL SHIFT VALUE                                                0.00000e+000
  
 NUMBER OF CPUS USED BY DIRECT SOLVER     4
  
 NUMBER OF NEGATIVE EIGENVALUES     0
 NUMBER OF POSITIVE EIGENVALUES     17738
 NUMBER OF NEGATIVE EIGENVALUES NOT ASSOCIATED WITH LAGRANGE MULTIPLIERS     0
 NUMBER OF LAGRANGE MULTIPLIERS     0
  
 COMPUTATIONAL INTERVAL FOR THE INITIAL LANCZOS RUN
 
 EIGENVALUES NEEDED TO THE RIGHT OF SHIFT VALUE  100
 EIGENVALUES NEEDED TO THE LEFT OF SHIFT VALUE     0
 RIGHT BOUNDARY OF THE COMPUTATIONAL INTERVAL  3.95574e+037
 LEFT BOUNDARY OF THE COMPUTATIONAL INTERVAL  -3.95574e+037
  
 LANCZOS RUN TERMINATED. NUMBER OF STEPS:   22
 TERMINATION BASED ON THE COST-PER-EIGENVALUE CRITERION
  
 NUMBER OF ACCEPTED EIGENVALUES   51
  
 ACCEPTED EIGENVALUES
  3.97743e-002 1.70382e-001 2.70387e-001 2.77099e-001 4.51317e-001 5.08503e-001
  5.29178e-001 6.17431e-001 6.76882e-001 7.28019e-001 7.54354e-001 7.58357e-001
  7.91111e-001 9.20733e-001 9.81120e-001 1.04358e+000 1.12708e+000 1.24487e+000
  1.37680e+000 1.38513e+000 1.45451e+000 1.53249e+000 1.59831e+000 1.62562e+000
  1.65534e+000 1.68708e+000 1.69740e+000 1.79180e+000 1.81161e+000 1.82833e+000
  1.85300e+000 2.02827e+000 2.29220e+000 2.34038e+000 2.37093e+000 2.37214e+000
  2.51520e+000 2.66063e+000 2.96323e+000 3.01430e+000 3.59092e+000 3.95618e+000
  3.98417e+000 4.03703e+000 4.28494e+000 4.70319e+000 4.82756e+000 5.01300e+000
  5.13450e+000 5.16628e+000 5.27219e+000
  
 FACTORIZATION WITH NEW SHIFT VALUE IS REQUIRED
  
 TRUST INTERVALS AFTER LANCZOS RUN AND COMPRESSION
  
 NUMBER OF TRUST INTERVALS    1
  
 -------------------------------------------------------------------------------------
 | KEY | INSIDE |      INERTIAS     |  SENTINELS  |   OUTSIDE   |  NEED TO FIND      |
 |      ENDS OF INTERVAL     |     ENDS OF SENTINEL      |   COMPUTATIONAL INTERVAL  |
 -------------------------------------------------------------------------------------
 |  +  |      0 |        0        0 |     0     0 |     0     0 |      0   100       |
 |-3.95574e+037 0.00000e+000 |-3.95574e+037 0.00000e+000 |-3.95574e+037 3.95574e+037 |
 -------------------------------------------------------------------------------------
  
 DATA FOR CHOOSING SHIFT
  
 NUMBER OF EIGENVALUES NEEDED IN THE PRIMARY TRUST INTERVAL  100
  
 NUMBER OF MODES FORMING SENTINEL TO THE RIGHT   51
 SHIFT RIGHT        1.87067e+001
  
 NUMBER OF MODES FORMING SENTINEL TO THE LEFT     0
 SHIFT LEFT         0.00000e+000
  
 SHIFTING TO THE RIGHT DIRECTION
 NEW SHIFT          1.87067e+001
  
 NUMBER OF NEGATIVE EIGENVALUES   109
 NUMBER OF POSITIVE EIGENVALUES     17629
 NUMBER OF NEGATIVE EIGENVALUES NOT ASSOCIATED WITH LAGRANGE MULTIPLIERS   109
 NUMBER OF LAGRANGE MULTIPLIERS     0
  
 NEW LANCZOS RUN IS REQUIRED
  
 TYPE OF RUN: EXPAND THE TRUST INTERVAL TO THE RIGHT
 EIGENVALUES NEEDED TO THE RIGHT     0
 EIGENVALUES NEEDED TO THE LEFT     58
 RIGHT BOUNDARY OF THE INTERVAL  1.87067e+001
 LEFT BOUNDARY OF THE INTERVAL   5.27219e+000
  
 TRUST INTERVALS AFTER FACTORIZATION AND COMPRESSION
  
 -------------------------------------------------------------------------------------
 | KEY | INSIDE |      INERTIAS     |  SENTINELS  |   OUTSIDE   |  NEED TO FIND      |
 |      ENDS OF INTERVAL     |     ENDS OF SENTINEL      |   COMPUTATIONAL INTERVAL  |
 -------------------------------------------------------------------------------------
 |  +  |      0 |        0        0 |     0    51 |     0    51 |      0   100       |
 |-3.95574e+037 0.00000e+000 |-3.95574e+037 5.27219e+000 |-3.95574e+037 3.95574e+037 |
 -------------------------------------------------------------------------------------
 |  -  |      0 |      109      109 |     0     0 |     0     0 |     58     0       |
 | 1.87067e+001 1.87067e+001 | 1.87067e+001 1.87067e+001 | 5.27219e+000 1.87067e+001 |
 -------------------------------------------------------------------------------------
  
 LANCZOS RUN TERMINATED. NUMBER OF STEPS:   26
 ALL THE EIGENVALUES REQUESTED ON THIS LANCZOS RUN ARE FOUND
  
 NUMBER OF ACCEPTED EIGENVALUES  109
  
 ACCEPTED EIGENVALUES
  3.97743e-002 1.70382e-001 2.70387e-001 2.77099e-001 4.51317e-001 5.08503e-001
  5.29178e-001 6.17431e-001 6.76882e-001 7.28019e-001 7.54354e-001 7.58357e-001
  7.91111e-001 9.20733e-001 9.81120e-001 1.04358e+000 1.12708e+000 1.24487e+000
  1.37680e+000 1.38513e+000 1.45451e+000 1.53249e+000 1.59831e+000 1.62562e+000
  1.65534e+000 1.68708e+000 1.69740e+000 1.79180e+000 1.81161e+000 1.82833e+000
  1.85300e+000 2.02827e+000 2.29220e+000 2.34038e+000 2.37093e+000 2.37214e+000
  2.51520e+000 2.66063e+000 2.96323e+000 3.01430e+000 3.59092e+000 3.95618e+000
  3.98417e+000 4.03703e+000 4.28494e+000 4.70319e+000 4.82756e+000 5.01300e+000
  5.13450e+000 5.16628e+000 5.27219e+000 5.79204e+000 6.06765e+000 6.09307e+000
  6.10575e+000 6.11034e+000 6.12345e+000 6.62108e+000 6.65639e+000 6.70275e+000
  6.72913e+000 6.73381e+000 6.74103e+000 7.50459e+000 7.51312e+000 7.76431e+000
  7.88341e+000 8.11331e+000 8.21172e+000 8.22181e+000 8.45034e+000 8.46738e+000
  9.47087e+000 9.77641e+000 9.91493e+000 1.05683e+001 1.13975e+001 1.14438e+001
  1.16150e+001 1.17555e+001 1.17736e+001 1.21334e+001 1.22205e+001 1.27632e+001
  1.30340e+001 1.33144e+001 1.34419e+001 1.36008e+001 1.36011e+001 1.37553e+001
  1.37708e+001 1.38060e+001 1.38188e+001 1.43759e+001 1.44258e+001 1.48663e+001
  1.51423e+001 1.51671e+001 1.51753e+001 1.55425e+001 1.57358e+001 1.59233e+001
  1.59846e+001 1.68041e+001 1.71417e+001 1.71603e+001 1.75489e+001 1.83164e+001
  1.86145e+001
  
 THE REQUIRED NUMBER OF EIGENVALUES IS FOUND
  
 FINAL TRUST INTERVALS AFTER SUCCESSFUL LANCZOS RUN
  
 NUMBER OF TRUST INTERVALS    1
  
 -------------------------------------------------------------------------------------
 | KEY | INSIDE |      INERTIAS     |  SENTINELS  |   OUTSIDE   |  NEED TO FIND      |
 |      ENDS OF INTERVAL     |     ENDS OF SENTINEL      |   COMPUTATIONAL INTERVAL  |
 -------------------------------------------------------------------------------------
 |  +  |    109 |        0      109 |     0     0 |     0     0 |      0     0       |
 |-3.95574e+037 1.87067e+001 |-3.95574e+037 1.87067e+001 |-3.95574e+037 1.87067e+001 |
 -------------------------------------------------------------------------------------
  
 FIRST EIGENVALUE REQUESTED BY THE USER     1
  
 EIGENVALUES REQUESTED BY THE USER
  3.97743e-002 1.70382e-001 2.70387e-001 2.77099e-001 4.51317e-001 5.08503e-001
  5.29178e-001 6.17431e-001 6.76882e-001 7.28019e-001 7.54354e-001 7.58357e-001
  7.91111e-001 9.20733e-001 9.81120e-001 1.04358e+000 1.12708e+000 1.24487e+000
  1.37680e+000 1.38513e+000 1.45451e+000 1.53249e+000 1.59831e+000 1.62562e+000
  1.65534e+000 1.68708e+000 1.69740e+000 1.79180e+000 1.81161e+000 1.82833e+000
  1.85300e+000 2.02827e+000 2.29220e+000 2.34038e+000 2.37093e+000 2.37214e+000
  2.51520e+000 2.66063e+000 2.96323e+000 3.01430e+000 3.59092e+000 3.95618e+000
  3.98417e+000 4.03703e+000 4.28494e+000 4.70319e+000 4.82756e+000 5.01300e+000
  5.13450e+000 5.16628e+000 5.27219e+000 5.79204e+000 6.06765e+000 6.09307e+000
  6.10575e+000 6.11034e+000 6.12345e+000 6.62108e+000 6.65639e+000 6.70275e+000
  6.72913e+000 6.73381e+000 6.74103e+000 7.50459e+000 7.51312e+000 7.76431e+000
  7.88341e+000 8.11331e+000 8.21172e+000 8.22181e+000 8.45034e+000 8.46738e+000
  9.47087e+000 9.77641e+000 9.91493e+000 1.05683e+001 1.13975e+001 1.14438e+001
  1.16150e+001 1.17555e+001 1.17736e+001 1.21334e+001 1.22205e+001 1.27632e+001
  1.30340e+001 1.33144e+001 1.34419e+001 1.36008e+001 1.36011e+001 1.37553e+001
  1.37708e+001 1.38060e+001 1.38188e+001 1.43759e+001 1.44258e+001 1.48663e+001
  1.51423e+001 1.51671e+001 1.51753e+001 1.55425e+001
  
 EIGENVALUE EXTRACTION USING THE LANCZOS EIGENSOLVER IS COMPLETE
 NUMBER OF LANCZOS RUNS       :   2
 NUMBER OF LANCZOS STEPS      :  48
 NUMBER OF FACTORIZATIONS     :   2
 NUMBER OF BACK SUBSTITUTIONS :  49

     CHECK POINT  END OF SOLVER       

       ELAPSED USER TIME (SEC)      =   9.1000    
       ELAPSED SYSTEM TIME (SEC)    =   1.1000    
       ELAPSED TOTAL CPU TIME (SEC) =   10.200    
       ELAPSED WALLCLOCK TIME (SEC) =          5


          THE ANALYSIS HAS BEEN COMPLETED



     ANALYSIS SUMMARY:
     TOTAL OF         78  INCREMENTS
                       1  CUTBACKS IN AUTOMATIC INCREMENTATION
                     188  ITERATIONS INCLUDING CONTACT ITERATIONS IF PRESENT
                     239  PASSES THROUGH THE EQUATION SOLVER OF WHICH 
                     190  INVOLVE MATRIX DECOMPOSITION, INCLUDING
                       0  DECOMPOSITION(S) OF THE MASS MATRIX
                       1  REORDERING OF EQUATIONS TO MINIMIZE WAVEFRONT
                       0  ADDITIONAL RESIDUAL EVALUATIONS FOR LINE SEARCHES
                       0  ADDITIONAL OPERATOR EVALUATIONS FOR LINE SEARCHES
                     201  WARNING MESSAGES DURING USER INPUT PROCESSING
                       1  WARNING MESSAGES DURING ANALYSIS
                       0  ANALYSIS WARNINGS ARE NUMERICAL PROBLEM MESSAGES
                       0  ANALYSIS WARNINGS ARE NEGATIVE EIGENVALUE MESSAGES
                       0  ERROR MESSAGES



     JOB TIME SUMMARY
       USER TIME (SEC)      =   74.900    
       SYSTEM TIME (SEC)    =   11.100    
       TOTAL CPU TIME (SEC) =   86.000    
       WALLCLOCK TIME (SEC) =         45
