1

   Abaqus 3DEXPERIENCE R2017x                                  Date 10-Apr-2023   Time 10:31:44
   For use by NTNU NORGES TEKNISK NATURVITENSKAPELIGE UNIVERSITET under license from Dassault Systemes or its subsidiary.



                         The Abaqus Software is a product of:

                           Dassault Systemes SIMULIA Corp.
                           1301 Atwood Avenue, Suite 101W
                              Johnston, RI 02919, USA
 


                   The Abaqus Software is available only under license
                   from Dassault Systemes or its subsidiary and may be
                   used or reproduced only in accordance with the terms
                   of such license.
 
                          On machine NTNU08422 
                          you are authorized to run
                          Abaqus/Standard until 30-Sep-2023

                          Your site id is: 100000000001981 


 
                    For assistance or any other information you may
                    obtain contact information for your local office
                    from the world wide web at:

                      http://www.3ds.com/products/simulia/locations/

 
                * * * * * * * * * * * * * * * * * * * * * * * * * * * * * * 
                *                                                         * 
                *                   *****************                     * 
                *                   *  N O T I C E  *                     * 
                *                   *****************                     * 
                *                                                         * 
                *                                                         * 
                *               Abaqus 3DEXPERIENCE R2017x                * 
                *                                                         * 
                *          BUILD ID: 2016_09_27-23.54.59 126836           * 
                *                                                         * 
                *                                                         * 
                *  Please make sure you are using                         * 
                *  release 3DEXPERIENCE R2017x manuals                    * 
                *  plus the notes accompanying this release.              * 
                *                                                         * 
                *                                                         * 
                *                                                         * 
                *                                                         * 
                *                                                         * 
                *   This program may not be used for commercial purposes  * 
                *           without payment of a commercial fee.          * 
                *                                                         * 
                * * * * * * * * * * * * * * * * * * * * * * * * * * * * * * 


 



     PROCESSING PART, INSTANCE, AND ASSEMBLY INFORMATION
   *******************************************************


     END PROCESSING PART, INSTANCE, AND ASSEMBLY INFORMATION
   ***********************************************************




     OPTIONS BEING PROCESSED
   ***************************


  *Node
  *Element, type=B31
  *Element, type=SPRING2
  *Element, type=B31
  *Element, type=SPRING2
  *Element, type=B31
  *Element, type=S4R
  *Element, type=B31
  *Nset, nset=ASSEMBLYSUSPENSIONBRIDGE_SUSPENSIONBRIDGE_BEARINGLOW1_NORTH
  *Nset, nset=ASSEMBLYSUSPENSIONBRIDGE_SUSPENSIONBRIDGE_BEARINGLOW1_SOUTH
  *Nset, nset=ASSEMBLYSUSPENSIONBRIDGE_SUSPENSIONBRIDGE_BEARINGLOW2_NORTH
  *Nset, nset=ASSEMBLYSUSPENSIONBRIDGE_SUSPENSIONBRIDGE_BEARINGLOW2_SOUTH
  *Nset, nset=ASSEMBLYSUSPENSIONBRIDGE_SUSPENSIONBRIDGE_BEARINGTOP1_NORTH
  *Nset, nset=ASSEMBLYSUSPENSIONBRIDGE_SUSPENSIONBRIDGE_BEARINGTOP1_SOUTH
  *Nset, nset=ASSEMBLYSUSPENSIONBRIDGE_SUSPENSIONBRIDGE_BEARINGTOP2_NORTH
  *Nset, nset=ASSEMBLYSUSPENSIONBRIDGE_SUSPENSIONBRIDGE_BEARINGTOP2_SOUTH
  *Nset, nset=ASSEMBLYSUSPENSIONBRIDGE_SUSPENSIONBRIDGE_BRIDGEDECK1_COG
  *Nset, nset=ASSEMBLYSUSPENSIONBRIDGE_SUSPENSIONBRIDGE_BRIDGEDECK2_COG
  *Nset, nset=ASSEMBLYSUSPENSIONBRIDGE_SUSPENSIONBRIDGE_BRIDGEDECK_GAPMID
  *Nset, nset=ASSEMBLYSUSPENSIONBRIDGE_SUSPENSIONBRIDGE_BRIDGEDECK_INNER_EAST
  *Nset, nset=ASSEMBLYSUSPENSIONBRIDGE_SUSPENSIONBRIDGE_BRIDGEDECK_INNER_WEST
  *Nset, nset=ASSEMBLYSUSPENSIONBRIDGE_SUSPENSIONBRIDGE_BRIDGEOUTER_EAST
  *Nset, nset=ASSEMBLYSUSPENSIONBRIDGE_SUSPENSIONBRIDGE_BRIDGEOUTER_WEST
  *Nset, nset=ASSEMBLYSUSPENSIONBRIDGE_SUSPENSIONBRIDGE_CABLE_CLAMP_TEMPERATURE
  *Nset, nset=ASSEMBLYSUSPENSIONBRIDGE_SUSPENSIONBRIDGE_CABLE_MAIN_ANCHORAGE
  *Nset, nset=ASSEMBLYSUSPENSIONBRIDGE_SUSPENSIONBRIDGE_CABLE_MAIN_EAST
  *Nset, nset=ASSEMBLYSUSPENSIONBRIDGE_SUSPENSIONBRIDGE_CABLE_MAIN_SPAN
  *Nset, nset=ASSEMBLYSUSPENSIONBRIDGE_SUSPENSIONBRIDGE_CABLE_MAIN_TOP
  *Nset, nset=ASSEMBLYSUSPENSIONBRIDGE_SUSPENSIONBRIDGE_CABLE_MAIN_TOP_NORTH_EAST
  *Nset, nset=ASSEMBLYSUSPENSIONBRIDGE_SUSPENSIONBRIDGE_CABLE_MAIN_TOP_NORTH_WEST
  *Nset, nset=ASSEMBLYSUSPENSIONBRIDGE_SUSPENSIONBRIDGE_CABLE_MAIN_TOP_SOUTH_EAST
  *Nset, nset=ASSEMBLYSUSPENSIONBRIDGE_SUSPENSIONBRIDGE_CABLE_MAIN_TOP_SOUTH_WEST
  *Nset, nset=ASSEMBLYSUSPENSIONBRIDGE_SUSPENSIONBRIDGE_CABLE_MAIN_WEST
  *Nset, nset=ASSEMBLYSUSPENSIONBRIDGE_SUSPENSIONBRIDGE_TOWER_BASE
  *Nset, nset=ASSEMBLYSUSPENSIONBRIDGE_SUSPENSIONBRIDGE_TOWER_CROSSBEAM_NORTH_1
  *Nset, nset=ASSEMBLYSUSPENSIONBRIDGE_SUSPENSIONBRIDGE_TOWER_CROSSBEAM_NORTH_1_END
  *Nset, nset=ASSEMBLYSUSPENSIONBRIDGE_SUSPENSIONBRIDGE_TOWER_CROSSBEAM_NORTH_1_START
  *Nset, nset=ASSEMBLYSUSPENSIONBRIDGE_SUSPENSIONBRIDGE_TOWER_CROSSBEAM_NORTH_2
  *Nset, nset=ASSEMBLYSUSPENSIONBRIDGE_SUSPENSIONBRIDGE_TOWER_CROSSBEAM_NORTH_2_END
  *Nset, nset=ASSEMBLYSUSPENSIONBRIDGE_SUSPENSIONBRIDGE_TOWER_CROSSBEAM_NORTH_2_START
  *Nset, nset=ASSEMBLYSUSPENSIONBRIDGE_SUSPENSIONBRIDGE_TOWER_CROSSBEAM_NORTH_3
  *Nset, nset=ASSEMBLYSUSPENSIONBRIDGE_SUSPENSIONBRIDGE_TOWER_CROSSBEAM_NORTH_3_END
  *Nset, nset=ASSEMBLYSUSPENSIONBRIDGE_SUSPENSIONBRIDGE_TOWER_CROSSBEAM_NORTH_3_START
  *Nset, nset=ASSEMBLYSUSPENSIONBRIDGE_SUSPENSIONBRIDGE_TOWER_CROSSBEAM_NORTH_4
  *Nset, nset=ASSEMBLYSUSPENSIONBRIDGE_SUSPENSIONBRIDGE_TOWER_CROSSBEAM_NORTH_4_END
  *Nset, nset=ASSEMBLYSUSPENSIONBRIDGE_SUSPENSIONBRIDGE_TOWER_CROSSBEAM_NORTH_4_START
  *Nset, nset=ASSEMBLYSUSPENSIONBRIDGE_SUSPENSIONBRIDGE_TOWER_CROSSBEAM_NORTH_5
  *Nset, nset=ASSEMBLYSUSPENSIONBRIDGE_SUSPENSIONBRIDGE_TOWER_CROSSBEAM_NORTH_5_END
  *Nset, nset=ASSEMBLYSUSPENSIONBRIDGE_SUSPENSIONBRIDGE_TOWER_CROSSBEAM_NORTH_5_START
  *Nset, nset=ASSEMBLYSUSPENSIONBRIDGE_SUSPENSIONBRIDGE_TOWER_CROSSBEAM_SOUTH_1
  *Nset, nset=ASSEMBLYSUSPENSIONBRIDGE_SUSPENSIONBRIDGE_TOWER_CROSSBEAM_SOUTH_1_END
  *Nset, nset=ASSEMBLYSUSPENSIONBRIDGE_SUSPENSIONBRIDGE_TOWER_CROSSBEAM_SOUTH_1_START
  *Nset, nset=ASSEMBLYSUSPENSIONBRIDGE_SUSPENSIONBRIDGE_TOWER_CROSSBEAM_SOUTH_2
  *Nset, nset=ASSEMBLYSUSPENSIONBRIDGE_SUSPENSIONBRIDGE_TOWER_CROSSBEAM_SOUTH_2_END
  *Nset, nset=ASSEMBLYSUSPENSIONBRIDGE_SUSPENSIONBRIDGE_TOWER_CROSSBEAM_SOUTH_2_START
  *Nset, nset=ASSEMBLYSUSPENSIONBRIDGE_SUSPENSIONBRIDGE_TOWER_CROSSBEAM_SOUTH_3
  *Nset, nset=ASSEMBLYSUSPENSIONBRIDGE_SUSPENSIONBRIDGE_TOWER_CROSSBEAM_SOUTH_3_END
  *Nset, nset=ASSEMBLYSUSPENSIONBRIDGE_SUSPENSIONBRIDGE_TOWER_CROSSBEAM_SOUTH_3_START
  *Nset, nset=ASSEMBLYSUSPENSIONBRIDGE_SUSPENSIONBRIDGE_TOWER_CROSSBEAM_SOUTH_4
  *Nset, nset=ASSEMBLYSUSPENSIONBRIDGE_SUSPENSIONBRIDGE_TOWER_CROSSBEAM_SOUTH_4_END
  *Nset, nset=ASSEMBLYSUSPENSIONBRIDGE_SUSPENSIONBRIDGE_TOWER_CROSSBEAM_SOUTH_4_START
  *Nset, nset=ASSEMBLYSUSPENSIONBRIDGE_SUSPENSIONBRIDGE_TOWER_CROSSBEAM_SOUTH_5
  *Nset, nset=ASSEMBLYSUSPENSIONBRIDGE_SUSPENSIONBRIDGE_TOWER_CROSSBEAM_SOUTH_5_END
  *Nset, nset=ASSEMBLYSUSPENSIONBRIDGE_SUSPENSIONBRIDGE_TOWER_CROSSBEAM_SOUTH_5_START
  *Nset, nset=ASSEMBLYSUSPENSIONBRIDGE_SUSPENSIONBRIDGE_TOWER_LEG
  *Nset, nset=ASSEMBLYSUSPENSIONBRIDGE_SUSPENSIONBRIDGE_TOWER_LEG_NORTH_CROSSBEAM_1_END
  *Nset, nset=ASSEMBLYSUSPENSIONBRIDGE_SUSPENSIONBRIDGE_TOWER_LEG_NORTH_CROSSBEAM_1_START
  *Nset, nset=ASSEMBLYSUSPENSIONBRIDGE_SUSPENSIONBRIDGE_TOWER_LEG_NORTH_CROSSBEAM_2_END
  *Nset, nset=ASSEMBLYSUSPENSIONBRIDGE_SUSPENSIONBRIDGE_TOWER_LEG_NORTH_CROSSBEAM_2_START
  *Nset, nset=ASSEMBLYSUSPENSIONBRIDGE_SUSPENSIONBRIDGE_TOWER_LEG_NORTH_CROSSBEAM_3_END
  *Nset, nset=ASSEMBLYSUSPENSIONBRIDGE_SUSPENSIONBRIDGE_TOWER_LEG_NORTH_CROSSBEAM_3_START
  *Nset, nset=ASSEMBLYSUSPENSIONBRIDGE_SUSPENSIONBRIDGE_TOWER_LEG_NORTH_CROSSBEAM_4_END
  *Nset, nset=ASSEMBLYSUSPENSIONBRIDGE_SUSPENSIONBRIDGE_TOWER_LEG_NORTH_CROSSBEAM_4_START
  *Nset, nset=ASSEMBLYSUSPENSIONBRIDGE_SUSPENSIONBRIDGE_TOWER_LEG_NORTH_CROSSBEAM_5_END
  *Nset, nset=ASSEMBLYSUSPENSIONBRIDGE_SUSPENSIONBRIDGE_TOWER_LEG_NORTH_CROSSBEAM_5_START
  *Nset, nset=ASSEMBLYSUSPENSIONBRIDGE_SUSPENSIONBRIDGE_TOWER_LEG_NORTH_EAST
  *Nset, nset=ASSEMBLYSUSPENSIONBRIDGE_SUSPENSIONBRIDGE_TOWER_LEG_NORTH_WEST
  *Nset, nset=ASSEMBLYSUSPENSIONBRIDGE_SUSPENSIONBRIDGE_TOWER_LEG_SOUTH_CROSSBEAM_1_END
  *Nset, nset=ASSEMBLYSUSPENSIONBRIDGE_SUSPENSIONBRIDGE_TOWER_LEG_SOUTH_CROSSBEAM_1_START
  *Nset, nset=ASSEMBLYSUSPENSIONBRIDGE_SUSPENSIONBRIDGE_TOWER_LEG_SOUTH_CROSSBEAM_2_END
  *Nset, nset=ASSEMBLYSUSPENSIONBRIDGE_SUSPENSIONBRIDGE_TOWER_LEG_SOUTH_CROSSBEAM_2_START
  *Nset, nset=ASSEMBLYSUSPENSIONBRIDGE_SUSPENSIONBRIDGE_TOWER_LEG_SOUTH_CROSSBEAM_3_END
  *Nset, nset=ASSEMBLYSUSPENSIONBRIDGE_SUSPENSIONBRIDGE_TOWER_LEG_SOUTH_CROSSBEAM_3_START
  *Nset, nset=ASSEMBLYSUSPENSIONBRIDGE_SUSPENSIONBRIDGE_TOWER_LEG_SOUTH_CROSSBEAM_4_END
  *Nset, nset=ASSEMBLYSUSPENSIONBRIDGE_SUSPENSIONBRIDGE_TOWER_LEG_SOUTH_CROSSBEAM_4_START
  *Nset, nset=ASSEMBLYSUSPENSIONBRIDGE_SUSPENSIONBRIDGE_TOWER_LEG_SOUTH_CROSSBEAM_5_END
  *Nset, nset=ASSEMBLYSUSPENSIONBRIDGE_SUSPENSIONBRIDGE_TOWER_LEG_SOUTH_CROSSBEAM_5_START
  *Nset, nset=ASSEMBLYSUSPENSIONBRIDGE_SUSPENSIONBRIDGE_TOWER_LEG_SOUTH_EAST
  *Nset, nset=ASSEMBLYSUSPENSIONBRIDGE_SUSPENSIONBRIDGE_TOWER_LEG_SOUTH_WEST
  *Nset, nset=ASSEMBLYSUSPENSIONBRIDGE_SUSPENSIONBRIDGE_TOWER_TOP_NORTH_EAST
  *Nset, nset=ASSEMBLYSUSPENSIONBRIDGE_SUSPENSIONBRIDGE_TOWER_TOP_NORTH_WEST
  *Nset, nset=ASSEMBLYSUSPENSIONBRIDGE_SUSPENSIONBRIDGE_TOWER_TOP_SOUTH_EAST
  *Nset, nset=ASSEMBLYSUSPENSIONBRIDGE_SUSPENSIONBRIDGE_TOWER_TOP_SOUTH_WEST
  *Elset, elset=ASSEMBLYSUSPENSIONBRIDGE_SUSPENSIONBRIDGE_BEARING
  *Elset, elset=ASSEMBLYSUSPENSIONBRIDGE_SUSPENSIONBRIDGE_BEARINGLOW
  *Elset, elset=ASSEMBLYSUSPENSIONBRIDGE_SUSPENSIONBRIDGE_BEARINGLOW1_NORTH
  *Elset, elset=ASSEMBLYSUSPENSIONBRIDGE_SUSPENSIONBRIDGE_BEARINGLOW1_SOUTH
  *Elset, elset=ASSEMBLYSUSPENSIONBRIDGE_SUSPENSIONBRIDGE_BEARINGLOW2_NORTH
  *Elset, elset=ASSEMBLYSUSPENSIONBRIDGE_SUSPENSIONBRIDGE_BEARINGLOW2_SOUTH
  *Elset, elset=ASSEMBLYSUSPENSIONBRIDGE_SUSPENSIONBRIDGE_BEARINGPENDULUM
  *Elset, elset=ASSEMBLYSUSPENSIONBRIDGE_SUSPENSIONBRIDGE_BEARINGPENDULUM1_NORTH
  *Elset, elset=ASSEMBLYSUSPENSIONBRIDGE_SUSPENSIONBRIDGE_BEARINGPENDULUM1_SOUTH
  *Elset, elset=ASSEMBLYSUSPENSIONBRIDGE_SUSPENSIONBRIDGE_BEARINGPENDULUM2_NORTH
  *Elset, elset=ASSEMBLYSUSPENSIONBRIDGE_SUSPENSIONBRIDGE_BEARINGPENDULUM2_SOUTH
  *Elset, elset=ASSEMBLYSUSPENSIONBRIDGE_SUSPENSIONBRIDGE_BEARINGSPRING
  *Elset, elset=ASSEMBLYSUSPENSIONBRIDGE_SUSPENSIONBRIDGE_BEARINGSPRING1_NORTH
  *Elset, elset=ASSEMBLYSUSPENSIONBRIDGE_SUSPENSIONBRIDGE_BEARINGSPRING1_NORTH_RX
  *Elset, elset=ASSEMBLYSUSPENSIONBRIDGE_SUSPENSIONBRIDGE_BEARINGSPRING1_NORTH_RY
  *Elset, elset=ASSEMBLYSUSPENSIONBRIDGE_SUSPENSIONBRIDGE_BEARINGSPRING1_NORTH_RZ
  *Elset, elset=ASSEMBLYSUSPENSIONBRIDGE_SUSPENSIONBRIDGE_BEARINGSPRING1_NORTH_X
  *Elset, elset=ASSEMBLYSUSPENSIONBRIDGE_SUSPENSIONBRIDGE_BEARINGSPRING1_NORTH_Y
  *Elset, elset=ASSEMBLYSUSPENSIONBRIDGE_SUSPENSIONBRIDGE_BEARINGSPRING1_NORTH_Z
  *Elset, elset=ASSEMBLYSUSPENSIONBRIDGE_SUSPENSIONBRIDGE_BEARINGSPRING1_SOUTH
  *Elset, elset=ASSEMBLYSUSPENSIONBRIDGE_SUSPENSIONBRIDGE_BEARINGSPRING1_SOUTH_RX
  *Elset, elset=ASSEMBLYSUSPENSIONBRIDGE_SUSPENSIONBRIDGE_BEARINGSPRING1_SOUTH_RY
  *Elset, elset=ASSEMBLYSUSPENSIONBRIDGE_SUSPENSIONBRIDGE_BEARINGSPRING1_SOUTH_RZ
  *Elset, elset=ASSEMBLYSUSPENSIONBRIDGE_SUSPENSIONBRIDGE_BEARINGSPRING1_SOUTH_X
  *Elset, elset=ASSEMBLYSUSPENSIONBRIDGE_SUSPENSIONBRIDGE_BEARINGSPRING1_SOUTH_Y
  *Elset, elset=ASSEMBLYSUSPENSIONBRIDGE_SUSPENSIONBRIDGE_BEARINGSPRING1_SOUTH_Z
  *Elset, elset=ASSEMBLYSUSPENSIONBRIDGE_SUSPENSIONBRIDGE_BEARINGSPRING2_NORTH
  *Elset, elset=ASSEMBLYSUSPENSIONBRIDGE_SUSPENSIONBRIDGE_BEARINGSPRING2_NORTH_RX
  *Elset, elset=ASSEMBLYSUSPENSIONBRIDGE_SUSPENSIONBRIDGE_BEARINGSPRING2_NORTH_RY
  *Elset, elset=ASSEMBLYSUSPENSIONBRIDGE_SUSPENSIONBRIDGE_BEARINGSPRING2_NORTH_RZ
  *Elset, elset=ASSEMBLYSUSPENSIONBRIDGE_SUSPENSIONBRIDGE_BEARINGSPRING2_NORTH_X
  *Elset, elset=ASSEMBLYSUSPENSIONBRIDGE_SUSPENSIONBRIDGE_BEARINGSPRING2_NORTH_Y
  *Elset, elset=ASSEMBLYSUSPENSIONBRIDGE_SUSPENSIONBRIDGE_BEARINGSPRING2_NORTH_Z
  *Elset, elset=ASSEMBLYSUSPENSIONBRIDGE_SUSPENSIONBRIDGE_BEARINGSPRING2_SOUTH
  *Elset, elset=ASSEMBLYSUSPENSIONBRIDGE_SUSPENSIONBRIDGE_BEARINGSPRING2_SOUTH_RX
  *Elset, elset=ASSEMBLYSUSPENSIONBRIDGE_SUSPENSIONBRIDGE_BEARINGSPRING2_SOUTH_RY
  *Elset, elset=ASSEMBLYSUSPENSIONBRIDGE_SUSPENSIONBRIDGE_BEARINGSPRING2_SOUTH_RZ
  *Elset, elset=ASSEMBLYSUSPENSIONBRIDGE_SUSPENSIONBRIDGE_BEARINGSPRING2_SOUTH_X
  *Elset, elset=ASSEMBLYSUSPENSIONBRIDGE_SUSPENSIONBRIDGE_BEARINGSPRING2_SOUTH_Y
  *Elset, elset=ASSEMBLYSUSPENSIONBRIDGE_SUSPENSIONBRIDGE_BEARINGSPRING2_SOUTH_Z
  *Elset, elset=ASSEMBLYSUSPENSIONBRIDGE_SUSPENSIONBRIDGE_BEARINGTOP
  *Elset, elset=ASSEMBLYSUSPENSIONBRIDGE_SUSPENSIONBRIDGE_BEARINGTOP1_NORTH
  *Elset, elset=ASSEMBLYSUSPENSIONBRIDGE_SUSPENSIONBRIDGE_BEARINGTOP1_SOUTH
  *Elset, elset=ASSEMBLYSUSPENSIONBRIDGE_SUSPENSIONBRIDGE_BEARINGTOP2_NORTH
  *Elset, elset=ASSEMBLYSUSPENSIONBRIDGE_SUSPENSIONBRIDGE_BEARINGTOP2_SOUTH
  *Elset, elset=ASSEMBLYSUSPENSIONBRIDGE_SUSPENSIONBRIDGE_BRIDGEDECK
  *Elset, elset=ASSEMBLYSUSPENSIONBRIDGE_SUSPENSIONBRIDGE_BRIDGEDECK1_COG
  *Elset, elset=ASSEMBLYSUSPENSIONBRIDGE_SUSPENSIONBRIDGE_BRIDGEDECK2_COG
  *Elset, elset=ASSEMBLYSUSPENSIONBRIDGE_SUSPENSIONBRIDGE_BRIDGEDECK_COG
  *Elset, elset=ASSEMBLYSUSPENSIONBRIDGE_SUSPENSIONBRIDGE_BRIDGEDECK_SHELL
  *Elset, elset=ASSEMBLYSUSPENSIONBRIDGE_SUSPENSIONBRIDGE_CABLE_CLAMP
  *Elset, elset=ASSEMBLYSUSPENSIONBRIDGE_SUSPENSIONBRIDGE_CABLE_CLAMP_EAST
  *Elset, elset=ASSEMBLYSUSPENSIONBRIDGE_SUSPENSIONBRIDGE_CABLE_CLAMP_WEST
  *Elset, elset=ASSEMBLYSUSPENSIONBRIDGE_SUSPENSIONBRIDGE_CABLE_MAIN
  *Elset, elset=ASSEMBLYSUSPENSIONBRIDGE_SUSPENSIONBRIDGE_CABLE_MAIN_EAST
  *Elset, elset=ASSEMBLYSUSPENSIONBRIDGE_SUSPENSIONBRIDGE_CABLE_MAIN_SPAN
  *Elset, elset=ASSEMBLYSUSPENSIONBRIDGE_SUSPENSIONBRIDGE_CABLE_MAIN_WEST
  *Elset, elset=ASSEMBLYSUSPENSIONBRIDGE_SUSPENSIONBRIDGE_CABLE_TEMPSUPPORT
  *Elset, elset=ASSEMBLYSUSPENSIONBRIDGE_SUSPENSIONBRIDGE_HANGER
  *Elset, elset=ASSEMBLYSUSPENSIONBRIDGE_SUSPENSIONBRIDGE_HANGER_EAST
  *Elset, elset=ASSEMBLYSUSPENSIONBRIDGE_SUSPENSIONBRIDGE_HANGER_WEST
  *Elset, elset=ASSEMBLYSUSPENSIONBRIDGE_SUSPENSIONBRIDGE_LATCONNGAP
  *Elset, elset=ASSEMBLYSUSPENSIONBRIDGE_SUSPENSIONBRIDGE_LATCONNGAPEAST
  *Elset, elset=ASSEMBLYSUSPENSIONBRIDGE_SUSPENSIONBRIDGE_LATCONNGAPWEST
  *Elset, elset=ASSEMBLYSUSPENSIONBRIDGE_SUSPENSIONBRIDGE_LATCONNINNER
  *Elset, elset=ASSEMBLYSUSPENSIONBRIDGE_SUSPENSIONBRIDGE_LATCONNINNEREAST
  *Elset, elset=ASSEMBLYSUSPENSIONBRIDGE_SUSPENSIONBRIDGE_LATCONNINNERWEST
  *Elset, elset=ASSEMBLYSUSPENSIONBRIDGE_SUSPENSIONBRIDGE_LATCONNOUTER
  *Elset, elset=ASSEMBLYSUSPENSIONBRIDGE_SUSPENSIONBRIDGE_LATCONNOUTEREAST
  *Elset, elset=ASSEMBLYSUSPENSIONBRIDGE_SUSPENSIONBRIDGE_LATCONNOUTERWEST
  *Elset, elset=ASSEMBLYSUSPENSIONBRIDGE_SUSPENSIONBRIDGE_SADLESPRING
  *Elset, elset=ASSEMBLYSUSPENSIONBRIDGE_SUSPENSIONBRIDGE_SADLESPRING_X
  *Elset, elset=ASSEMBLYSUSPENSIONBRIDGE_SUSPENSIONBRIDGE_SADLESPRING_Y
  *Elset, elset=ASSEMBLYSUSPENSIONBRIDGE_SUSPENSIONBRIDGE_SADLESPRING_Z
  *Elset, elset=ASSEMBLYSUSPENSIONBRIDGE_SUSPENSIONBRIDGE_TOWER
  *Elset, elset=ASSEMBLYSUSPENSIONBRIDGE_SUSPENSIONBRIDGE_TOWER_CROSSBEAM
  *Elset, elset=ASSEMBLYSUSPENSIONBRIDGE_SUSPENSIONBRIDGE_TOWER_CROSSBEAM_NORTH_1
  *Elset, elset=ASSEMBLYSUSPENSIONBRIDGE_SUSPENSIONBRIDGE_TOWER_CROSSBEAM_NORTH_2
  *Elset, elset=ASSEMBLYSUSPENSIONBRIDGE_SUSPENSIONBRIDGE_TOWER_CROSSBEAM_NORTH_3
  *Elset, elset=ASSEMBLYSUSPENSIONBRIDGE_SUSPENSIONBRIDGE_TOWER_CROSSBEAM_NORTH_4
  *Elset, elset=ASSEMBLYSUSPENSIONBRIDGE_SUSPENSIONBRIDGE_TOWER_CROSSBEAM_NORTH_5
  *Elset, elset=ASSEMBLYSUSPENSIONBRIDGE_SUSPENSIONBRIDGE_TOWER_CROSSBEAM_SOUTH_1
  *Elset, elset=ASSEMBLYSUSPENSIONBRIDGE_SUSPENSIONBRIDGE_TOWER_CROSSBEAM_SOUTH_2
  *Elset, elset=ASSEMBLYSUSPENSIONBRIDGE_SUSPENSIONBRIDGE_TOWER_CROSSBEAM_SOUTH_3
  *Elset, elset=ASSEMBLYSUSPENSIONBRIDGE_SUSPENSIONBRIDGE_TOWER_CROSSBEAM_SOUTH_4
  *Elset, elset=ASSEMBLYSUSPENSIONBRIDGE_SUSPENSIONBRIDGE_TOWER_CROSSBEAM_SOUTH_5
  *Elset, elset=ASSEMBLYSUSPENSIONBRIDGE_SUSPENSIONBRIDGE_TOWER_LEG
  *Elset, elset=ASSEMBLYSUSPENSIONBRIDGE_SUSPENSIONBRIDGE_TOWER_LEG_NORTH_EAST
  *Elset, elset=ASSEMBLYSUSPENSIONBRIDGE_SUSPENSIONBRIDGE_TOWER_LEG_NORTH_WEST
  *Elset, elset=ASSEMBLYSUSPENSIONBRIDGE_SUSPENSIONBRIDGE_TOWER_LEG_SOUTH_EAST
  *Elset, elset=ASSEMBLYSUSPENSIONBRIDGE_SUSPENSIONBRIDGE_TOWER_LEG_SOUTH_WEST
  *Elset, elset=ASSEMBLYSUSPENSIONBRIDGE_SUSPENSIONBRIDGE_TOWER_NORTH_CS_001
  *Elset, elset=ASSEMBLYSUSPENSIONBRIDGE_SUSPENSIONBRIDGE_TOWER_NORTH_CS_002
  *Elset, elset=ASSEMBLYSUSPENSIONBRIDGE_SUSPENSIONBRIDGE_TOWER_NORTH_CS_003
  *Elset, elset=ASSEMBLYSUSPENSIONBRIDGE_SUSPENSIONBRIDGE_TOWER_NORTH_CS_004
  *Elset, elset=ASSEMBLYSUSPENSIONBRIDGE_SUSPENSIONBRIDGE_TOWER_NORTH_CS_005
  *Elset, elset=ASSEMBLYSUSPENSIONBRIDGE_SUSPENSIONBRIDGE_TOWER_NORTH_CS_006
  *Elset, elset=ASSEMBLYSUSPENSIONBRIDGE_SUSPENSIONBRIDGE_TOWER_NORTH_CS_007
  *Elset, elset=ASSEMBLYSUSPENSIONBRIDGE_SUSPENSIONBRIDGE_TOWER_NORTH_CS_008
  *Elset, elset=ASSEMBLYSUSPENSIONBRIDGE_SUSPENSIONBRIDGE_TOWER_NORTH_CS_009
  *Elset, elset=ASSEMBLYSUSPENSIONBRIDGE_SUSPENSIONBRIDGE_TOWER_NORTH_CS_010
  *Elset, elset=ASSEMBLYSUSPENSIONBRIDGE_SUSPENSIONBRIDGE_TOWER_NORTH_CS_011
  *Elset, elset=ASSEMBLYSUSPENSIONBRIDGE_SUSPENSIONBRIDGE_TOWER_NORTH_CS_012
  *Elset, elset=ASSEMBLYSUSPENSIONBRIDGE_SUSPENSIONBRIDGE_TOWER_NORTH_CS_013
  *Elset, elset=ASSEMBLYSUSPENSIONBRIDGE_SUSPENSIONBRIDGE_TOWER_NORTH_CS_014
  *Elset, elset=ASSEMBLYSUSPENSIONBRIDGE_SUSPENSIONBRIDGE_TOWER_NORTH_CS_015
  *Elset, elset=ASSEMBLYSUSPENSIONBRIDGE_SUSPENSIONBRIDGE_TOWER_NORTH_CS_016
  *Elset, elset=ASSEMBLYSUSPENSIONBRIDGE_SUSPENSIONBRIDGE_TOWER_NORTH_CS_017
  *Elset, elset=ASSEMBLYSUSPENSIONBRIDGE_SUSPENSIONBRIDGE_TOWER_NORTH_CS_018
  *Elset, elset=ASSEMBLYSUSPENSIONBRIDGE_SUSPENSIONBRIDGE_TOWER_NORTH_CS_019
  *Elset, elset=ASSEMBLYSUSPENSIONBRIDGE_SUSPENSIONBRIDGE_TOWER_NORTH_CS_020
  *Elset, elset=ASSEMBLYSUSPENSIONBRIDGE_SUSPENSIONBRIDGE_TOWER_NORTH_CS_021
  *Elset, elset=ASSEMBLYSUSPENSIONBRIDGE_SUSPENSIONBRIDGE_TOWER_NORTH_CS_022
  *Elset, elset=ASSEMBLYSUSPENSIONBRIDGE_SUSPENSIONBRIDGE_TOWER_NORTH_CS_023
  *Elset, elset=ASSEMBLYSUSPENSIONBRIDGE_SUSPENSIONBRIDGE_TOWER_NORTH_CS_024
  *Elset, elset=ASSEMBLYSUSPENSIONBRIDGE_SUSPENSIONBRIDGE_TOWER_NORTH_CS_025
  *Elset, elset=ASSEMBLYSUSPENSIONBRIDGE_SUSPENSIONBRIDGE_TOWER_NORTH_CS_026
  *Elset, elset=ASSEMBLYSUSPENSIONBRIDGE_SUSPENSIONBRIDGE_TOWER_NORTH_CS_027
  *Elset, elset=ASSEMBLYSUSPENSIONBRIDGE_SUSPENSIONBRIDGE_TOWER_NORTH_CS_028
  *Elset, elset=ASSEMBLYSUSPENSIONBRIDGE_SUSPENSIONBRIDGE_TOWER_NORTH_CS_029
  *Elset, elset=ASSEMBLYSUSPENSIONBRIDGE_SUSPENSIONBRIDGE_TOWER_NORTH_CS_030
  *Elset, elset=ASSEMBLYSUSPENSIONBRIDGE_SUSPENSIONBRIDGE_TOWER_NORTH_CS_031
  *Elset, elset=ASSEMBLYSUSPENSIONBRIDGE_SUSPENSIONBRIDGE_TOWER_NORTH_CS_032
  *Elset, elset=ASSEMBLYSUSPENSIONBRIDGE_SUSPENSIONBRIDGE_TOWER_NORTH_CS_033
  *Elset, elset=ASSEMBLYSUSPENSIONBRIDGE_SUSPENSIONBRIDGE_TOWER_NORTH_CS_034
  *Elset, elset=ASSEMBLYSUSPENSIONBRIDGE_SUSPENSIONBRIDGE_TOWER_NORTH_CS_035
  *Elset, elset=ASSEMBLYSUSPENSIONBRIDGE_SUSPENSIONBRIDGE_TOWER_NORTH_CS_036
  *Elset, elset=ASSEMBLYSUSPENSIONBRIDGE_SUSPENSIONBRIDGE_TOWER_NORTH_CS_037
  *Elset, elset=ASSEMBLYSUSPENSIONBRIDGE_SUSPENSIONBRIDGE_TOWER_NORTH_CS_038
  *Elset, elset=ASSEMBLYSUSPENSIONBRIDGE_SUSPENSIONBRIDGE_TOWER_NORTH_CS_039
  *Elset, elset=ASSEMBLYSUSPENSIONBRIDGE_SUSPENSIONBRIDGE_TOWER_NORTH_CS_040
  *Elset, elset=ASSEMBLYSUSPENSIONBRIDGE_SUSPENSIONBRIDGE_TOWER_NORTH_CS_041
  *Elset, elset=ASSEMBLYSUSPENSIONBRIDGE_SUSPENSIONBRIDGE_TOWER_NORTH_CS_042
  *Elset, elset=ASSEMBLYSUSPENSIONBRIDGE_SUSPENSIONBRIDGE_TOWER_NORTH_CS_043
  *Elset, elset=ASSEMBLYSUSPENSIONBRIDGE_SUSPENSIONBRIDGE_TOWER_NORTH_CS_044
  *Elset, elset=ASSEMBLYSUSPENSIONBRIDGE_SUSPENSIONBRIDGE_TOWER_NORTH_CS_045
  *Elset, elset=ASSEMBLYSUSPENSIONBRIDGE_SUSPENSIONBRIDGE_TOWER_NORTH_CS_046
  *Elset, elset=ASSEMBLYSUSPENSIONBRIDGE_SUSPENSIONBRIDGE_TOWER_NORTH_CS_047
  *Elset, elset=ASSEMBLYSUSPENSIONBRIDGE_SUSPENSIONBRIDGE_TOWER_NORTH_CS_048
  *Elset, elset=ASSEMBLYSUSPENSIONBRIDGE_SUSPENSIONBRIDGE_TOWER_NORTH_CS_049
  *Elset, elset=ASSEMBLYSUSPENSIONBRIDGE_SUSPENSIONBRIDGE_TOWER_NORTH_CS_050
  *Elset, elset=ASSEMBLYSUSPENSIONBRIDGE_SUSPENSIONBRIDGE_TOWER_NORTH_CS_051
  *Elset, elset=ASSEMBLYSUSPENSIONBRIDGE_SUSPENSIONBRIDGE_TOWER_NORTH_CS_052
  *Elset, elset=ASSEMBLYSUSPENSIONBRIDGE_SUSPENSIONBRIDGE_TOWER_NORTH_CS_053
  *Elset, elset=ASSEMBLYSUSPENSIONBRIDGE_SUSPENSIONBRIDGE_TOWER_NORTH_CS_054
  *Elset, elset=ASSEMBLYSUSPENSIONBRIDGE_SUSPENSIONBRIDGE_TOWER_NORTH_CS_055
  *Elset, elset=ASSEMBLYSUSPENSIONBRIDGE_SUSPENSIONBRIDGE_TOWER_NORTH_CS_056
  *Elset, elset=ASSEMBLYSUSPENSIONBRIDGE_SUSPENSIONBRIDGE_TOWER_NORTH_CS_057
  *Elset, elset=ASSEMBLYSUSPENSIONBRIDGE_SUSPENSIONBRIDGE_TOWER_NORTH_CS_058
  *Elset, elset=ASSEMBLYSUSPENSIONBRIDGE_SUSPENSIONBRIDGE_TOWER_NORTH_CS_059
  *Elset, elset=ASSEMBLYSUSPENSIONBRIDGE_SUSPENSIONBRIDGE_TOWER_NORTH_CS_060
  *Elset, elset=ASSEMBLYSUSPENSIONBRIDGE_SUSPENSIONBRIDGE_TOWER_NORTH_CS_061
  *Elset, elset=ASSEMBLYSUSPENSIONBRIDGE_SUSPENSIONBRIDGE_TOWER_NORTH_CS_062
  *Elset, elset=ASSEMBLYSUSPENSIONBRIDGE_SUSPENSIONBRIDGE_TOWER_NORTH_CS_063
  *Elset, elset=ASSEMBLYSUSPENSIONBRIDGE_SUSPENSIONBRIDGE_TOWER_NORTH_CS_064
  *Elset, elset=ASSEMBLYSUSPENSIONBRIDGE_SUSPENSIONBRIDGE_TOWER_NORTH_CS_065
  *Elset, elset=ASSEMBLYSUSPENSIONBRIDGE_SUSPENSIONBRIDGE_TOWER_NORTH_CS_066
  *Elset, elset=ASSEMBLYSUSPENSIONBRIDGE_SUSPENSIONBRIDGE_TOWER_NORTH_CS_067
  *Elset, elset=ASSEMBLYSUSPENSIONBRIDGE_SUSPENSIONBRIDGE_TOWER_NORTH_CS_068
  *Elset, elset=ASSEMBLYSUSPENSIONBRIDGE_SUSPENSIONBRIDGE_TOWER_NORTH_CS_069
  *Elset, elset=ASSEMBLYSUSPENSIONBRIDGE_SUSPENSIONBRIDGE_TOWER_NORTH_CS_070
  *Elset, elset=ASSEMBLYSUSPENSIONBRIDGE_SUSPENSIONBRIDGE_TOWER_NORTH_CS_071
  *Elset, elset=ASSEMBLYSUSPENSIONBRIDGE_SUSPENSIONBRIDGE_TOWER_NORTH_CS_072
  *Elset, elset=ASSEMBLYSUSPENSIONBRIDGE_SUSPENSIONBRIDGE_TOWER_NORTH_CS_073
  *Elset, elset=ASSEMBLYSUSPENSIONBRIDGE_SUSPENSIONBRIDGE_TOWER_NORTH_CS_074
  *Elset, elset=ASSEMBLYSUSPENSIONBRIDGE_SUSPENSIONBRIDGE_TOWER_SOUTH_CS_001
  *Elset, elset=ASSEMBLYSUSPENSIONBRIDGE_SUSPENSIONBRIDGE_TOWER_SOUTH_CS_002
  *Elset, elset=ASSEMBLYSUSPENSIONBRIDGE_SUSPENSIONBRIDGE_TOWER_SOUTH_CS_003
  *Elset, elset=ASSEMBLYSUSPENSIONBRIDGE_SUSPENSIONBRIDGE_TOWER_SOUTH_CS_004
  *Elset, elset=ASSEMBLYSUSPENSIONBRIDGE_SUSPENSIONBRIDGE_TOWER_SOUTH_CS_005
  *Elset, elset=ASSEMBLYSUSPENSIONBRIDGE_SUSPENSIONBRIDGE_TOWER_SOUTH_CS_006
  *Elset, elset=ASSEMBLYSUSPENSIONBRIDGE_SUSPENSIONBRIDGE_TOWER_SOUTH_CS_007
  *Elset, elset=ASSEMBLYSUSPENSIONBRIDGE_SUSPENSIONBRIDGE_TOWER_SOUTH_CS_008
  *Elset, elset=ASSEMBLYSUSPENSIONBRIDGE_SUSPENSIONBRIDGE_TOWER_SOUTH_CS_009
  *Elset, elset=ASSEMBLYSUSPENSIONBRIDGE_SUSPENSIONBRIDGE_TOWER_SOUTH_CS_010
  *Elset, elset=ASSEMBLYSUSPENSIONBRIDGE_SUSPENSIONBRIDGE_TOWER_SOUTH_CS_011
  *Elset, elset=ASSEMBLYSUSPENSIONBRIDGE_SUSPENSIONBRIDGE_TOWER_SOUTH_CS_012
  *Elset, elset=ASSEMBLYSUSPENSIONBRIDGE_SUSPENSIONBRIDGE_TOWER_SOUTH_CS_013
  *Elset, elset=ASSEMBLYSUSPENSIONBRIDGE_SUSPENSIONBRIDGE_TOWER_SOUTH_CS_014
  *Elset, elset=ASSEMBLYSUSPENSIONBRIDGE_SUSPENSIONBRIDGE_TOWER_SOUTH_CS_015
  *Elset, elset=ASSEMBLYSUSPENSIONBRIDGE_SUSPENSIONBRIDGE_TOWER_SOUTH_CS_016
  *Elset, elset=ASSEMBLYSUSPENSIONBRIDGE_SUSPENSIONBRIDGE_TOWER_SOUTH_CS_017
  *Elset, elset=ASSEMBLYSUSPENSIONBRIDGE_SUSPENSIONBRIDGE_TOWER_SOUTH_CS_018
  *Elset, elset=ASSEMBLYSUSPENSIONBRIDGE_SUSPENSIONBRIDGE_TOWER_SOUTH_CS_019
  *Elset, elset=ASSEMBLYSUSPENSIONBRIDGE_SUSPENSIONBRIDGE_TOWER_SOUTH_CS_020
  *Elset, elset=ASSEMBLYSUSPENSIONBRIDGE_SUSPENSIONBRIDGE_TOWER_SOUTH_CS_021
  *Elset, elset=ASSEMBLYSUSPENSIONBRIDGE_SUSPENSIONBRIDGE_TOWER_SOUTH_CS_022
  *Elset, elset=ASSEMBLYSUSPENSIONBRIDGE_SUSPENSIONBRIDGE_TOWER_SOUTH_CS_023
  *Elset, elset=ASSEMBLYSUSPENSIONBRIDGE_SUSPENSIONBRIDGE_TOWER_SOUTH_CS_024
  *Elset, elset=ASSEMBLYSUSPENSIONBRIDGE_SUSPENSIONBRIDGE_TOWER_SOUTH_CS_025
  *Elset, elset=ASSEMBLYSUSPENSIONBRIDGE_SUSPENSIONBRIDGE_TOWER_SOUTH_CS_026
  *Elset, elset=ASSEMBLYSUSPENSIONBRIDGE_SUSPENSIONBRIDGE_TOWER_SOUTH_CS_027
  *Elset, elset=ASSEMBLYSUSPENSIONBRIDGE_SUSPENSIONBRIDGE_TOWER_SOUTH_CS_028
  *Elset, elset=ASSEMBLYSUSPENSIONBRIDGE_SUSPENSIONBRIDGE_TOWER_SOUTH_CS_029
  *Elset, elset=ASSEMBLYSUSPENSIONBRIDGE_SUSPENSIONBRIDGE_TOWER_SOUTH_CS_030
  *Elset, elset=ASSEMBLYSUSPENSIONBRIDGE_SUSPENSIONBRIDGE_TOWER_SOUTH_CS_031
  *Elset, elset=ASSEMBLYSUSPENSIONBRIDGE_SUSPENSIONBRIDGE_TOWER_SOUTH_CS_032
  *Elset, elset=ASSEMBLYSUSPENSIONBRIDGE_SUSPENSIONBRIDGE_TOWER_SOUTH_CS_033
  *Elset, elset=ASSEMBLYSUSPENSIONBRIDGE_SUSPENSIONBRIDGE_TOWER_SOUTH_CS_034
  *Elset, elset=ASSEMBLYSUSPENSIONBRIDGE_SUSPENSIONBRIDGE_TOWER_SOUTH_CS_035
  *Elset, elset=ASSEMBLYSUSPENSIONBRIDGE_SUSPENSIONBRIDGE_TOWER_SOUTH_CS_036
  *Elset, elset=ASSEMBLYSUSPENSIONBRIDGE_SUSPENSIONBRIDGE_TOWER_SOUTH_CS_037
  *Elset, elset=ASSEMBLYSUSPENSIONBRIDGE_SUSPENSIONBRIDGE_TOWER_SOUTH_CS_038
  *Elset, elset=ASSEMBLYSUSPENSIONBRIDGE_SUSPENSIONBRIDGE_TOWER_SOUTH_CS_039
  *Elset, elset=ASSEMBLYSUSPENSIONBRIDGE_SUSPENSIONBRIDGE_TOWER_SOUTH_CS_040
  *Elset, elset=ASSEMBLYSUSPENSIONBRIDGE_SUSPENSIONBRIDGE_TOWER_SOUTH_CS_041
  *Elset, elset=ASSEMBLYSUSPENSIONBRIDGE_SUSPENSIONBRIDGE_TOWER_SOUTH_CS_042
  *Elset, elset=ASSEMBLYSUSPENSIONBRIDGE_SUSPENSIONBRIDGE_TOWER_SOUTH_CS_043
  *Elset, elset=ASSEMBLYSUSPENSIONBRIDGE_SUSPENSIONBRIDGE_TOWER_SOUTH_CS_044
  *Elset, elset=ASSEMBLYSUSPENSIONBRIDGE_SUSPENSIONBRIDGE_TOWER_SOUTH_CS_045
  *Elset, elset=ASSEMBLYSUSPENSIONBRIDGE_SUSPENSIONBRIDGE_TOWER_SOUTH_CS_046
  *Elset, elset=ASSEMBLYSUSPENSIONBRIDGE_SUSPENSIONBRIDGE_TOWER_SOUTH_CS_047
  *Elset, elset=ASSEMBLYSUSPENSIONBRIDGE_SUSPENSIONBRIDGE_TOWER_SOUTH_CS_048
  *Elset, elset=ASSEMBLYSUSPENSIONBRIDGE_SUSPENSIONBRIDGE_TOWER_SOUTH_CS_049
  *Elset, elset=ASSEMBLYSUSPENSIONBRIDGE_SUSPENSIONBRIDGE_TOWER_SOUTH_CS_050
  *Elset, elset=ASSEMBLYSUSPENSIONBRIDGE_SUSPENSIONBRIDGE_TOWER_SOUTH_CS_051
  *Elset, elset=ASSEMBLYSUSPENSIONBRIDGE_SUSPENSIONBRIDGE_TOWER_SOUTH_CS_052
  *Elset, elset=ASSEMBLYSUSPENSIONBRIDGE_SUSPENSIONBRIDGE_TOWER_SOUTH_CS_053
  *Elset, elset=ASSEMBLYSUSPENSIONBRIDGE_SUSPENSIONBRIDGE_TOWER_SOUTH_CS_054
  *Elset, elset=ASSEMBLYSUSPENSIONBRIDGE_SUSPENSIONBRIDGE_TOWER_SOUTH_CS_055
  *Elset, elset=ASSEMBLYSUSPENSIONBRIDGE_SUSPENSIONBRIDGE_TOWER_SOUTH_CS_056
  *Elset, elset=ASSEMBLYSUSPENSIONBRIDGE_SUSPENSIONBRIDGE_TOWER_SOUTH_CS_057
  *Elset, elset=ASSEMBLYSUSPENSIONBRIDGE_SUSPENSIONBRIDGE_TOWER_SOUTH_CS_058
  *Elset, elset=ASSEMBLYSUSPENSIONBRIDGE_SUSPENSIONBRIDGE_TOWER_SOUTH_CS_059
  *Elset, elset=ASSEMBLYSUSPENSIONBRIDGE_SUSPENSIONBRIDGE_TOWER_SOUTH_CS_060
  *Elset, elset=ASSEMBLYSUSPENSIONBRIDGE_SUSPENSIONBRIDGE_TOWER_SOUTH_CS_061
  *Elset, elset=ASSEMBLYSUSPENSIONBRIDGE_SUSPENSIONBRIDGE_TOWER_SOUTH_CS_062
  *Elset, elset=ASSEMBLYSUSPENSIONBRIDGE_SUSPENSIONBRIDGE_TOWER_SOUTH_CS_063
  *Elset, elset=ASSEMBLYSUSPENSIONBRIDGE_SUSPENSIONBRIDGE_TOWER_SOUTH_CS_064
  *Elset, elset=ASSEMBLYSUSPENSIONBRIDGE_SUSPENSIONBRIDGE_TOWER_SOUTH_CS_065
  *Elset, elset=ASSEMBLYSUSPENSIONBRIDGE_SUSPENSIONBRIDGE_TOWER_SOUTH_CS_066
  *Elset, elset=ASSEMBLYSUSPENSIONBRIDGE_SUSPENSIONBRIDGE_TOWER_SOUTH_CS_067
  *Elset, elset=ASSEMBLYSUSPENSIONBRIDGE_SUSPENSIONBRIDGE_TOWER_SOUTH_CS_068
  *Elset, elset=ASSEMBLYSUSPENSIONBRIDGE_SUSPENSIONBRIDGE_TOWER_SOUTH_CS_069
  *Elset, elset=ASSEMBLYSUSPENSIONBRIDGE_SUSPENSIONBRIDGE_TOWER_SOUTH_CS_070
  *Elset, elset=ASSEMBLYSUSPENSIONBRIDGE_SUSPENSIONBRIDGE_TOWER_SOUTH_CS_071
  *Elset, elset=ASSEMBLYSUSPENSIONBRIDGE_SUSPENSIONBRIDGE_TOWER_SOUTH_CS_072
  *Elset, elset=ASSEMBLYSUSPENSIONBRIDGE_SUSPENSIONBRIDGE_TOWER_SOUTH_CS_073
  *Elset, elset=ASSEMBLYSUSPENSIONBRIDGE_SUSPENSIONBRIDGE_TOWER_SOUTH_CS_074
  *material, name=CONCRETE
  *elastic
  *density
  *material, name=SOFT
  *elastic
  *density
  *material, name=STEEL
  *elastic
  *density
  *beamgeneralsection, elset=ASSEMBLYSUSPENSIONBRIDGE_SUSPENSIONBRIDGE_CABLE_MAIN, density=7850, section=GENERAL
  *beamgeneralsection, elset=ASSEMBLYSUSPENSIONBRIDGE_SUSPENSIONBRIDGE_CABLE_TEMPSUPPORT, density=0, section=GENERAL
  *beamgeneralsection, elset=ASSEMBLYSUSPENSIONBRIDGE_SUSPENSIONBRIDGE_LATCONNOUTER, density=0, section=GENERAL
  *beamgeneralsection, elset=ASSEMBLYSUSPENSIONBRIDGE_SUSPENSIONBRIDGE_BRIDGEDECK1_COG, density=0, section=GENERAL
  *beamgeneralsection, elset=ASSEMBLYSUSPENSIONBRIDGE_SUSPENSIONBRIDGE_BRIDGEDECK2_COG, density=0, section=GENERAL
  *beamgeneralsection, elset=ASSEMBLYSUSPENSIONBRIDGE_SUSPENSIONBRIDGE_LATCONNINNER, density=0, section=GENERAL
  *beamgeneralsection, elset=ASSEMBLYSUSPENSIONBRIDGE_SUSPENSIONBRIDGE_HANGER, density=7850, section=GENERAL
  *beamgeneralsection, elset=ASSEMBLYSUSPENSIONBRIDGE_SUSPENSIONBRIDGE_BEARINGTOP, density=0, section=GENERAL
  *beamgeneralsection, elset=ASSEMBLYSUSPENSIONBRIDGE_SUSPENSIONBRIDGE_BEARINGLOW, density=0, section=GENERAL
  *beamgeneralsection, elset=ASSEMBLYSUSPENSIONBRIDGE_SUSPENSIONBRIDGE_CABLE_CLAMP, density=7850, section=GENERAL
  *spring, elset=ASSEMBLYSUSPENSIONBRIDGE_SUSPENSIONBRIDGE_SADLESPRING_X
  *spring, elset=ASSEMBLYSUSPENSIONBRIDGE_SUSPENSIONBRIDGE_SADLESPRING_Y
  *spring, elset=ASSEMBLYSUSPENSIONBRIDGE_SUSPENSIONBRIDGE_SADLESPRING_Z
  *spring, elset=ASSEMBLYSUSPENSIONBRIDGE_SUSPENSIONBRIDGE_BEARINGSPRING1_SOUTH_X
  *spring, elset=ASSEMBLYSUSPENSIONBRIDGE_SUSPENSIONBRIDGE_BEARINGSPRING1_SOUTH_Y
  *spring, elset=ASSEMBLYSUSPENSIONBRIDGE_SUSPENSIONBRIDGE_BEARINGSPRING1_SOUTH_Z
  *spring, elset=ASSEMBLYSUSPENSIONBRIDGE_SUSPENSIONBRIDGE_BEARINGSPRING1_SOUTH_RX
  *spring, elset=ASSEMBLYSUSPENSIONBRIDGE_SUSPENSIONBRIDGE_BEARINGSPRING1_SOUTH_RY
  *spring, elset=ASSEMBLYSUSPENSIONBRIDGE_SUSPENSIONBRIDGE_BEARINGSPRING1_SOUTH_RZ
  *spring, elset=ASSEMBLYSUSPENSIONBRIDGE_SUSPENSIONBRIDGE_BEARINGSPRING1_NORTH_X
  *spring, elset=ASSEMBLYSUSPENSIONBRIDGE_SUSPENSIONBRIDGE_BEARINGSPRING1_NORTH_Y
  *spring, elset=ASSEMBLYSUSPENSIONBRIDGE_SUSPENSIONBRIDGE_BEARINGSPRING1_NORTH_Z
  *spring, elset=ASSEMBLYSUSPENSIONBRIDGE_SUSPENSIONBRIDGE_BEARINGSPRING1_NORTH_RX
  *spring, elset=ASSEMBLYSUSPENSIONBRIDGE_SUSPENSIONBRIDGE_BEARINGSPRING1_NORTH_RY
  *spring, elset=ASSEMBLYSUSPENSIONBRIDGE_SUSPENSIONBRIDGE_BEARINGSPRING1_NORTH_RZ
  *spring, elset=ASSEMBLYSUSPENSIONBRIDGE_SUSPENSIONBRIDGE_BEARINGSPRING2_SOUTH_X
  *spring, elset=ASSEMBLYSUSPENSIONBRIDGE_SUSPENSIONBRIDGE_BEARINGSPRING2_SOUTH_Y
  *spring, elset=ASSEMBLYSUSPENSIONBRIDGE_SUSPENSIONBRIDGE_BEARINGSPRING2_SOUTH_Z
  *spring, elset=ASSEMBLYSUSPENSIONBRIDGE_SUSPENSIONBRIDGE_BEARINGSPRING2_SOUTH_RX
  *spring, elset=ASSEMBLYSUSPENSIONBRIDGE_SUSPENSIONBRIDGE_BEARINGSPRING2_SOUTH_RY
  *spring, elset=ASSEMBLYSUSPENSIONBRIDGE_SUSPENSIONBRIDGE_BEARINGSPRING2_SOUTH_RZ
  *spring, elset=ASSEMBLYSUSPENSIONBRIDGE_SUSPENSIONBRIDGE_BEARINGSPRING2_NORTH_X
  *spring, elset=ASSEMBLYSUSPENSIONBRIDGE_SUSPENSIONBRIDGE_BEARINGSPRING2_NORTH_Y
  *spring, elset=ASSEMBLYSUSPENSIONBRIDGE_SUSPENSIONBRIDGE_BEARINGSPRING2_NORTH_Z
  *spring, elset=ASSEMBLYSUSPENSIONBRIDGE_SUSPENSIONBRIDGE_BEARINGSPRING2_NORTH_RX
  *spring, elset=ASSEMBLYSUSPENSIONBRIDGE_SUSPENSIONBRIDGE_BEARINGSPRING2_NORTH_RY
  *spring, elset=ASSEMBLYSUSPENSIONBRIDGE_SUSPENSIONBRIDGE_BEARINGSPRING2_NORTH_RZ
  *shellsection, elset=ASSEMBLYSUSPENSIONBRIDGE_SUSPENSIONBRIDGE_BRIDGEDECK_SHELL, material=SOFT, offset=SNEG
  *beamsection, elset=ASSEMBLYSUSPENSIONBRIDGE_SUSPENSIONBRIDGE_TOWER_SOUTH_CS_001, material=CONCRETE, section=BOX

 ***WARNING: ONE OR MORE THICKNESS OF THE BOX SECTION IS GREATER THAN 0.1 OF 
             THE CROSS SECTION DIMENSION. THE TORSIONAL RIGIDITY MAY NOT BE 
             EVALUATED ACCURATELY SINCE THE CALCULATION IS BASED ON THE 
             ASSUMPTION THAT THE WALL THICKNESS IS MUCH SMALL IN COMPARISON TO 
             THE CROSS SECTION DIMENSION
  *beamsection, elset=ASSEMBLYSUSPENSIONBRIDGE_SUSPENSIONBRIDGE_TOWER_NORTH_CS_001, material=CONCRETE, section=BOX

 ***WARNING: ONE OR MORE THICKNESS OF THE BOX SECTION IS GREATER THAN 0.1 OF 
             THE CROSS SECTION DIMENSION. THE TORSIONAL RIGIDITY MAY NOT BE 
             EVALUATED ACCURATELY SINCE THE CALCULATION IS BASED ON THE 
             ASSUMPTION THAT THE WALL THICKNESS IS MUCH SMALL IN COMPARISON TO 
             THE CROSS SECTION DIMENSION
  *beamsection, elset=ASSEMBLYSUSPENSIONBRIDGE_SUSPENSIONBRIDGE_TOWER_SOUTH_CS_002, material=CONCRETE, section=BOX

 ***WARNING: ONE OR MORE THICKNESS OF THE BOX SECTION IS GREATER THAN 0.1 OF 
             THE CROSS SECTION DIMENSION. THE TORSIONAL RIGIDITY MAY NOT BE 
             EVALUATED ACCURATELY SINCE THE CALCULATION IS BASED ON THE 
             ASSUMPTION THAT THE WALL THICKNESS IS MUCH SMALL IN COMPARISON TO 
             THE CROSS SECTION DIMENSION
  *beamsection, elset=ASSEMBLYSUSPENSIONBRIDGE_SUSPENSIONBRIDGE_TOWER_NORTH_CS_002, material=CONCRETE, section=BOX

 ***WARNING: ONE OR MORE THICKNESS OF THE BOX SECTION IS GREATER THAN 0.1 OF 
             THE CROSS SECTION DIMENSION. THE TORSIONAL RIGIDITY MAY NOT BE 
             EVALUATED ACCURATELY SINCE THE CALCULATION IS BASED ON THE 
             ASSUMPTION THAT THE WALL THICKNESS IS MUCH SMALL IN COMPARISON TO 
             THE CROSS SECTION DIMENSION
  *beamsection, elset=ASSEMBLYSUSPENSIONBRIDGE_SUSPENSIONBRIDGE_TOWER_SOUTH_CS_003, material=CONCRETE, section=BOX

 ***WARNING: ONE OR MORE THICKNESS OF THE BOX SECTION IS GREATER THAN 0.1 OF 
             THE CROSS SECTION DIMENSION. THE TORSIONAL RIGIDITY MAY NOT BE 
             EVALUATED ACCURATELY SINCE THE CALCULATION IS BASED ON THE 
             ASSUMPTION THAT THE WALL THICKNESS IS MUCH SMALL IN COMPARISON TO 
             THE CROSS SECTION DIMENSION
  *beamsection, elset=ASSEMBLYSUSPENSIONBRIDGE_SUSPENSIONBRIDGE_TOWER_NORTH_CS_003, material=CONCRETE, section=BOX

 ***WARNING: ONE OR MORE THICKNESS OF THE BOX SECTION IS GREATER THAN 0.1 OF 
             THE CROSS SECTION DIMENSION. THE TORSIONAL RIGIDITY MAY NOT BE 
             EVALUATED ACCURATELY SINCE THE CALCULATION IS BASED ON THE 
             ASSUMPTION THAT THE WALL THICKNESS IS MUCH SMALL IN COMPARISON TO 
             THE CROSS SECTION DIMENSION
  *beamsection, elset=ASSEMBLYSUSPENSIONBRIDGE_SUSPENSIONBRIDGE_TOWER_SOUTH_CS_004, material=CONCRETE, section=BOX

 ***WARNING: ONE OR MORE THICKNESS OF THE BOX SECTION IS GREATER THAN 0.1 OF 
             THE CROSS SECTION DIMENSION. THE TORSIONAL RIGIDITY MAY NOT BE 
             EVALUATED ACCURATELY SINCE THE CALCULATION IS BASED ON THE 
             ASSUMPTION THAT THE WALL THICKNESS IS MUCH SMALL IN COMPARISON TO 
             THE CROSS SECTION DIMENSION
  *beamsection, elset=ASSEMBLYSUSPENSIONBRIDGE_SUSPENSIONBRIDGE_TOWER_NORTH_CS_004, material=CONCRETE, section=BOX

 ***WARNING: ONE OR MORE THICKNESS OF THE BOX SECTION IS GREATER THAN 0.1 OF 
             THE CROSS SECTION DIMENSION. THE TORSIONAL RIGIDITY MAY NOT BE 
             EVALUATED ACCURATELY SINCE THE CALCULATION IS BASED ON THE 
             ASSUMPTION THAT THE WALL THICKNESS IS MUCH SMALL IN COMPARISON TO 
             THE CROSS SECTION DIMENSION
  *beamsection, elset=ASSEMBLYSUSPENSIONBRIDGE_SUSPENSIONBRIDGE_TOWER_SOUTH_CS_005, material=CONCRETE, section=BOX

 ***WARNING: ONE OR MORE THICKNESS OF THE BOX SECTION IS GREATER THAN 0.1 OF 
             THE CROSS SECTION DIMENSION. THE TORSIONAL RIGIDITY MAY NOT BE 
             EVALUATED ACCURATELY SINCE THE CALCULATION IS BASED ON THE 
             ASSUMPTION THAT THE WALL THICKNESS IS MUCH SMALL IN COMPARISON TO 
             THE CROSS SECTION DIMENSION
  *beamsection, elset=ASSEMBLYSUSPENSIONBRIDGE_SUSPENSIONBRIDGE_TOWER_NORTH_CS_005, material=CONCRETE, section=BOX

 ***WARNING: ONE OR MORE THICKNESS OF THE BOX SECTION IS GREATER THAN 0.1 OF 
             THE CROSS SECTION DIMENSION. THE TORSIONAL RIGIDITY MAY NOT BE 
             EVALUATED ACCURATELY SINCE THE CALCULATION IS BASED ON THE 
             ASSUMPTION THAT THE WALL THICKNESS IS MUCH SMALL IN COMPARISON TO 
             THE CROSS SECTION DIMENSION
  *beamsection, elset=ASSEMBLYSUSPENSIONBRIDGE_SUSPENSIONBRIDGE_TOWER_SOUTH_CS_006, material=CONCRETE, section=BOX

 ***WARNING: ONE OR MORE THICKNESS OF THE BOX SECTION IS GREATER THAN 0.1 OF 
             THE CROSS SECTION DIMENSION. THE TORSIONAL RIGIDITY MAY NOT BE 
             EVALUATED ACCURATELY SINCE THE CALCULATION IS BASED ON THE 
             ASSUMPTION THAT THE WALL THICKNESS IS MUCH SMALL IN COMPARISON TO 
             THE CROSS SECTION DIMENSION
  *beamsection, elset=ASSEMBLYSUSPENSIONBRIDGE_SUSPENSIONBRIDGE_TOWER_NORTH_CS_006, material=CONCRETE, section=BOX

 ***WARNING: ONE OR MORE THICKNESS OF THE BOX SECTION IS GREATER THAN 0.1 OF 
             THE CROSS SECTION DIMENSION. THE TORSIONAL RIGIDITY MAY NOT BE 
             EVALUATED ACCURATELY SINCE THE CALCULATION IS BASED ON THE 
             ASSUMPTION THAT THE WALL THICKNESS IS MUCH SMALL IN COMPARISON TO 
             THE CROSS SECTION DIMENSION
  *beamsection, elset=ASSEMBLYSUSPENSIONBRIDGE_SUSPENSIONBRIDGE_TOWER_SOUTH_CS_007, material=CONCRETE, section=BOX

 ***WARNING: ONE OR MORE THICKNESS OF THE BOX SECTION IS GREATER THAN 0.1 OF 
             THE CROSS SECTION DIMENSION. THE TORSIONAL RIGIDITY MAY NOT BE 
             EVALUATED ACCURATELY SINCE THE CALCULATION IS BASED ON THE 
             ASSUMPTION THAT THE WALL THICKNESS IS MUCH SMALL IN COMPARISON TO 
             THE CROSS SECTION DIMENSION
  *beamsection, elset=ASSEMBLYSUSPENSIONBRIDGE_SUSPENSIONBRIDGE_TOWER_NORTH_CS_007, material=CONCRETE, section=BOX

 ***WARNING: ONE OR MORE THICKNESS OF THE BOX SECTION IS GREATER THAN 0.1 OF 
             THE CROSS SECTION DIMENSION. THE TORSIONAL RIGIDITY MAY NOT BE 
             EVALUATED ACCURATELY SINCE THE CALCULATION IS BASED ON THE 
             ASSUMPTION THAT THE WALL THICKNESS IS MUCH SMALL IN COMPARISON TO 
             THE CROSS SECTION DIMENSION
  *beamsection, elset=ASSEMBLYSUSPENSIONBRIDGE_SUSPENSIONBRIDGE_TOWER_SOUTH_CS_008, material=CONCRETE, section=BOX

 ***WARNING: ONE OR MORE THICKNESS OF THE BOX SECTION IS GREATER THAN 0.1 OF 
             THE CROSS SECTION DIMENSION. THE TORSIONAL RIGIDITY MAY NOT BE 
             EVALUATED ACCURATELY SINCE THE CALCULATION IS BASED ON THE 
             ASSUMPTION THAT THE WALL THICKNESS IS MUCH SMALL IN COMPARISON TO 
             THE CROSS SECTION DIMENSION
  *beamsection, elset=ASSEMBLYSUSPENSIONBRIDGE_SUSPENSIONBRIDGE_TOWER_NORTH_CS_008, material=CONCRETE, section=BOX

 ***WARNING: ONE OR MORE THICKNESS OF THE BOX SECTION IS GREATER THAN 0.1 OF 
             THE CROSS SECTION DIMENSION. THE TORSIONAL RIGIDITY MAY NOT BE 
             EVALUATED ACCURATELY SINCE THE CALCULATION IS BASED ON THE 
             ASSUMPTION THAT THE WALL THICKNESS IS MUCH SMALL IN COMPARISON TO 
             THE CROSS SECTION DIMENSION
  *beamsection, elset=ASSEMBLYSUSPENSIONBRIDGE_SUSPENSIONBRIDGE_TOWER_SOUTH_CS_009, material=CONCRETE, section=BOX

 ***WARNING: ONE OR MORE THICKNESS OF THE BOX SECTION IS GREATER THAN 0.1 OF 
             THE CROSS SECTION DIMENSION. THE TORSIONAL RIGIDITY MAY NOT BE 
             EVALUATED ACCURATELY SINCE THE CALCULATION IS BASED ON THE 
             ASSUMPTION THAT THE WALL THICKNESS IS MUCH SMALL IN COMPARISON TO 
             THE CROSS SECTION DIMENSION
  *beamsection, elset=ASSEMBLYSUSPENSIONBRIDGE_SUSPENSIONBRIDGE_TOWER_NORTH_CS_009, material=CONCRETE, section=BOX

 ***WARNING: ONE OR MORE THICKNESS OF THE BOX SECTION IS GREATER THAN 0.1 OF 
             THE CROSS SECTION DIMENSION. THE TORSIONAL RIGIDITY MAY NOT BE 
             EVALUATED ACCURATELY SINCE THE CALCULATION IS BASED ON THE 
             ASSUMPTION THAT THE WALL THICKNESS IS MUCH SMALL IN COMPARISON TO 
             THE CROSS SECTION DIMENSION
  *beamsection, elset=ASSEMBLYSUSPENSIONBRIDGE_SUSPENSIONBRIDGE_TOWER_SOUTH_CS_010, material=CONCRETE, section=BOX

 ***WARNING: ONE OR MORE THICKNESS OF THE BOX SECTION IS GREATER THAN 0.1 OF 
             THE CROSS SECTION DIMENSION. THE TORSIONAL RIGIDITY MAY NOT BE 
             EVALUATED ACCURATELY SINCE THE CALCULATION IS BASED ON THE 
             ASSUMPTION THAT THE WALL THICKNESS IS MUCH SMALL IN COMPARISON TO 
             THE CROSS SECTION DIMENSION
  *beamsection, elset=ASSEMBLYSUSPENSIONBRIDGE_SUSPENSIONBRIDGE_TOWER_NORTH_CS_010, material=CONCRETE, section=BOX

 ***WARNING: ONE OR MORE THICKNESS OF THE BOX SECTION IS GREATER THAN 0.1 OF 
             THE CROSS SECTION DIMENSION. THE TORSIONAL RIGIDITY MAY NOT BE 
             EVALUATED ACCURATELY SINCE THE CALCULATION IS BASED ON THE 
             ASSUMPTION THAT THE WALL THICKNESS IS MUCH SMALL IN COMPARISON TO 
             THE CROSS SECTION DIMENSION
  *beamsection, elset=ASSEMBLYSUSPENSIONBRIDGE_SUSPENSIONBRIDGE_TOWER_SOUTH_CS_011, material=CONCRETE, section=BOX

 ***WARNING: ONE OR MORE THICKNESS OF THE BOX SECTION IS GREATER THAN 0.1 OF 
             THE CROSS SECTION DIMENSION. THE TORSIONAL RIGIDITY MAY NOT BE 
             EVALUATED ACCURATELY SINCE THE CALCULATION IS BASED ON THE 
             ASSUMPTION THAT THE WALL THICKNESS IS MUCH SMALL IN COMPARISON TO 
             THE CROSS SECTION DIMENSION
  *beamsection, elset=ASSEMBLYSUSPENSIONBRIDGE_SUSPENSIONBRIDGE_TOWER_NORTH_CS_011, material=CONCRETE, section=BOX

 ***WARNING: ONE OR MORE THICKNESS OF THE BOX SECTION IS GREATER THAN 0.1 OF 
             THE CROSS SECTION DIMENSION. THE TORSIONAL RIGIDITY MAY NOT BE 
             EVALUATED ACCURATELY SINCE THE CALCULATION IS BASED ON THE 
             ASSUMPTION THAT THE WALL THICKNESS IS MUCH SMALL IN COMPARISON TO 
             THE CROSS SECTION DIMENSION
  *beamsection, elset=ASSEMBLYSUSPENSIONBRIDGE_SUSPENSIONBRIDGE_TOWER_SOUTH_CS_012, material=CONCRETE, section=BOX

 ***WARNING: ONE OR MORE THICKNESS OF THE BOX SECTION IS GREATER THAN 0.1 OF 
             THE CROSS SECTION DIMENSION. THE TORSIONAL RIGIDITY MAY NOT BE 
             EVALUATED ACCURATELY SINCE THE CALCULATION IS BASED ON THE 
             ASSUMPTION THAT THE WALL THICKNESS IS MUCH SMALL IN COMPARISON TO 
             THE CROSS SECTION DIMENSION
  *beamsection, elset=ASSEMBLYSUSPENSIONBRIDGE_SUSPENSIONBRIDGE_TOWER_NORTH_CS_012, material=CONCRETE, section=BOX

 ***WARNING: ONE OR MORE THICKNESS OF THE BOX SECTION IS GREATER THAN 0.1 OF 
             THE CROSS SECTION DIMENSION. THE TORSIONAL RIGIDITY MAY NOT BE 
             EVALUATED ACCURATELY SINCE THE CALCULATION IS BASED ON THE 
             ASSUMPTION THAT THE WALL THICKNESS IS MUCH SMALL IN COMPARISON TO 
             THE CROSS SECTION DIMENSION
  *beamsection, elset=ASSEMBLYSUSPENSIONBRIDGE_SUSPENSIONBRIDGE_TOWER_SOUTH_CS_013, material=CONCRETE, section=BOX

 ***WARNING: ONE OR MORE THICKNESS OF THE BOX SECTION IS GREATER THAN 0.1 OF 
             THE CROSS SECTION DIMENSION. THE TORSIONAL RIGIDITY MAY NOT BE 
             EVALUATED ACCURATELY SINCE THE CALCULATION IS BASED ON THE 
             ASSUMPTION THAT THE WALL THICKNESS IS MUCH SMALL IN COMPARISON TO 
             THE CROSS SECTION DIMENSION
  *beamsection, elset=ASSEMBLYSUSPENSIONBRIDGE_SUSPENSIONBRIDGE_TOWER_NORTH_CS_013, material=CONCRETE, section=BOX

 ***WARNING: ONE OR MORE THICKNESS OF THE BOX SECTION IS GREATER THAN 0.1 OF 
             THE CROSS SECTION DIMENSION. THE TORSIONAL RIGIDITY MAY NOT BE 
             EVALUATED ACCURATELY SINCE THE CALCULATION IS BASED ON THE 
             ASSUMPTION THAT THE WALL THICKNESS IS MUCH SMALL IN COMPARISON TO 
             THE CROSS SECTION DIMENSION
  *beamsection, elset=ASSEMBLYSUSPENSIONBRIDGE_SUSPENSIONBRIDGE_TOWER_SOUTH_CS_014, material=CONCRETE, section=BOX

 ***WARNING: ONE OR MORE THICKNESS OF THE BOX SECTION IS GREATER THAN 0.1 OF 
             THE CROSS SECTION DIMENSION. THE TORSIONAL RIGIDITY MAY NOT BE 
             EVALUATED ACCURATELY SINCE THE CALCULATION IS BASED ON THE 
             ASSUMPTION THAT THE WALL THICKNESS IS MUCH SMALL IN COMPARISON TO 
             THE CROSS SECTION DIMENSION
  *beamsection, elset=ASSEMBLYSUSPENSIONBRIDGE_SUSPENSIONBRIDGE_TOWER_NORTH_CS_014, material=CONCRETE, section=BOX

 ***WARNING: ONE OR MORE THICKNESS OF THE BOX SECTION IS GREATER THAN 0.1 OF 
             THE CROSS SECTION DIMENSION. THE TORSIONAL RIGIDITY MAY NOT BE 
             EVALUATED ACCURATELY SINCE THE CALCULATION IS BASED ON THE 
             ASSUMPTION THAT THE WALL THICKNESS IS MUCH SMALL IN COMPARISON TO 
             THE CROSS SECTION DIMENSION
  *beamsection, elset=ASSEMBLYSUSPENSIONBRIDGE_SUSPENSIONBRIDGE_TOWER_SOUTH_CS_015, material=CONCRETE, section=BOX

 ***WARNING: ONE OR MORE THICKNESS OF THE BOX SECTION IS GREATER THAN 0.1 OF 
             THE CROSS SECTION DIMENSION. THE TORSIONAL RIGIDITY MAY NOT BE 
             EVALUATED ACCURATELY SINCE THE CALCULATION IS BASED ON THE 
             ASSUMPTION THAT THE WALL THICKNESS IS MUCH SMALL IN COMPARISON TO 
             THE CROSS SECTION DIMENSION
  *beamsection, elset=ASSEMBLYSUSPENSIONBRIDGE_SUSPENSIONBRIDGE_TOWER_NORTH_CS_015, material=CONCRETE, section=BOX

 ***WARNING: ONE OR MORE THICKNESS OF THE BOX SECTION IS GREATER THAN 0.1 OF 
             THE CROSS SECTION DIMENSION. THE TORSIONAL RIGIDITY MAY NOT BE 
             EVALUATED ACCURATELY SINCE THE CALCULATION IS BASED ON THE 
             ASSUMPTION THAT THE WALL THICKNESS IS MUCH SMALL IN COMPARISON TO 
             THE CROSS SECTION DIMENSION
  *beamsection, elset=ASSEMBLYSUSPENSIONBRIDGE_SUSPENSIONBRIDGE_TOWER_SOUTH_CS_016, material=CONCRETE, section=BOX

 ***WARNING: ONE OR MORE THICKNESS OF THE BOX SECTION IS GREATER THAN 0.1 OF 
             THE CROSS SECTION DIMENSION. THE TORSIONAL RIGIDITY MAY NOT BE 
             EVALUATED ACCURATELY SINCE THE CALCULATION IS BASED ON THE 
             ASSUMPTION THAT THE WALL THICKNESS IS MUCH SMALL IN COMPARISON TO 
             THE CROSS SECTION DIMENSION
  *beamsection, elset=ASSEMBLYSUSPENSIONBRIDGE_SUSPENSIONBRIDGE_TOWER_NORTH_CS_016, material=CONCRETE, section=BOX

 ***WARNING: ONE OR MORE THICKNESS OF THE BOX SECTION IS GREATER THAN 0.1 OF 
             THE CROSS SECTION DIMENSION. THE TORSIONAL RIGIDITY MAY NOT BE 
             EVALUATED ACCURATELY SINCE THE CALCULATION IS BASED ON THE 
             ASSUMPTION THAT THE WALL THICKNESS IS MUCH SMALL IN COMPARISON TO 
             THE CROSS SECTION DIMENSION
  *beamsection, elset=ASSEMBLYSUSPENSIONBRIDGE_SUSPENSIONBRIDGE_TOWER_SOUTH_CS_017, material=CONCRETE, section=BOX

 ***WARNING: ONE OR MORE THICKNESS OF THE BOX SECTION IS GREATER THAN 0.1 OF 
             THE CROSS SECTION DIMENSION. THE TORSIONAL RIGIDITY MAY NOT BE 
             EVALUATED ACCURATELY SINCE THE CALCULATION IS BASED ON THE 
             ASSUMPTION THAT THE WALL THICKNESS IS MUCH SMALL IN COMPARISON TO 
             THE CROSS SECTION DIMENSION
  *beamsection, elset=ASSEMBLYSUSPENSIONBRIDGE_SUSPENSIONBRIDGE_TOWER_NORTH_CS_017, material=CONCRETE, section=BOX

 ***WARNING: ONE OR MORE THICKNESS OF THE BOX SECTION IS GREATER THAN 0.1 OF 
             THE CROSS SECTION DIMENSION. THE TORSIONAL RIGIDITY MAY NOT BE 
             EVALUATED ACCURATELY SINCE THE CALCULATION IS BASED ON THE 
             ASSUMPTION THAT THE WALL THICKNESS IS MUCH SMALL IN COMPARISON TO 
             THE CROSS SECTION DIMENSION
  *beamsection, elset=ASSEMBLYSUSPENSIONBRIDGE_SUSPENSIONBRIDGE_TOWER_SOUTH_CS_018, material=CONCRETE, section=BOX

 ***WARNING: ONE OR MORE THICKNESS OF THE BOX SECTION IS GREATER THAN 0.1 OF 
             THE CROSS SECTION DIMENSION. THE TORSIONAL RIGIDITY MAY NOT BE 
             EVALUATED ACCURATELY SINCE THE CALCULATION IS BASED ON THE 
             ASSUMPTION THAT THE WALL THICKNESS IS MUCH SMALL IN COMPARISON TO 
             THE CROSS SECTION DIMENSION
  *beamsection, elset=ASSEMBLYSUSPENSIONBRIDGE_SUSPENSIONBRIDGE_TOWER_NORTH_CS_018, material=CONCRETE, section=BOX

 ***WARNING: ONE OR MORE THICKNESS OF THE BOX SECTION IS GREATER THAN 0.1 OF 
             THE CROSS SECTION DIMENSION. THE TORSIONAL RIGIDITY MAY NOT BE 
             EVALUATED ACCURATELY SINCE THE CALCULATION IS BASED ON THE 
             ASSUMPTION THAT THE WALL THICKNESS IS MUCH SMALL IN COMPARISON TO 
             THE CROSS SECTION DIMENSION
  *beamsection, elset=ASSEMBLYSUSPENSIONBRIDGE_SUSPENSIONBRIDGE_TOWER_SOUTH_CS_019, material=CONCRETE, section=BOX

 ***WARNING: ONE OR MORE THICKNESS OF THE BOX SECTION IS GREATER THAN 0.1 OF 
             THE CROSS SECTION DIMENSION. THE TORSIONAL RIGIDITY MAY NOT BE 
             EVALUATED ACCURATELY SINCE THE CALCULATION IS BASED ON THE 
             ASSUMPTION THAT THE WALL THICKNESS IS MUCH SMALL IN COMPARISON TO 
             THE CROSS SECTION DIMENSION
  *beamsection, elset=ASSEMBLYSUSPENSIONBRIDGE_SUSPENSIONBRIDGE_TOWER_NORTH_CS_019, material=CONCRETE, section=BOX

 ***WARNING: ONE OR MORE THICKNESS OF THE BOX SECTION IS GREATER THAN 0.1 OF 
             THE CROSS SECTION DIMENSION. THE TORSIONAL RIGIDITY MAY NOT BE 
             EVALUATED ACCURATELY SINCE THE CALCULATION IS BASED ON THE 
             ASSUMPTION THAT THE WALL THICKNESS IS MUCH SMALL IN COMPARISON TO 
             THE CROSS SECTION DIMENSION
  *beamsection, elset=ASSEMBLYSUSPENSIONBRIDGE_SUSPENSIONBRIDGE_TOWER_SOUTH_CS_020, material=CONCRETE, section=BOX

 ***WARNING: ONE OR MORE THICKNESS OF THE BOX SECTION IS GREATER THAN 0.1 OF 
             THE CROSS SECTION DIMENSION. THE TORSIONAL RIGIDITY MAY NOT BE 
             EVALUATED ACCURATELY SINCE THE CALCULATION IS BASED ON THE 
             ASSUMPTION THAT THE WALL THICKNESS IS MUCH SMALL IN COMPARISON TO 
             THE CROSS SECTION DIMENSION
  *beamsection, elset=ASSEMBLYSUSPENSIONBRIDGE_SUSPENSIONBRIDGE_TOWER_NORTH_CS_020, material=CONCRETE, section=BOX

 ***WARNING: ONE OR MORE THICKNESS OF THE BOX SECTION IS GREATER THAN 0.1 OF 
             THE CROSS SECTION DIMENSION. THE TORSIONAL RIGIDITY MAY NOT BE 
             EVALUATED ACCURATELY SINCE THE CALCULATION IS BASED ON THE 
             ASSUMPTION THAT THE WALL THICKNESS IS MUCH SMALL IN COMPARISON TO 
             THE CROSS SECTION DIMENSION
  *beamsection, elset=ASSEMBLYSUSPENSIONBRIDGE_SUSPENSIONBRIDGE_TOWER_SOUTH_CS_021, material=CONCRETE, section=BOX

 ***WARNING: ONE OR MORE THICKNESS OF THE BOX SECTION IS GREATER THAN 0.1 OF 
             THE CROSS SECTION DIMENSION. THE TORSIONAL RIGIDITY MAY NOT BE 
             EVALUATED ACCURATELY SINCE THE CALCULATION IS BASED ON THE 
             ASSUMPTION THAT THE WALL THICKNESS IS MUCH SMALL IN COMPARISON TO 
             THE CROSS SECTION DIMENSION
  *beamsection, elset=ASSEMBLYSUSPENSIONBRIDGE_SUSPENSIONBRIDGE_TOWER_NORTH_CS_021, material=CONCRETE, section=BOX

 ***WARNING: ONE OR MORE THICKNESS OF THE BOX SECTION IS GREATER THAN 0.1 OF 
             THE CROSS SECTION DIMENSION. THE TORSIONAL RIGIDITY MAY NOT BE 
             EVALUATED ACCURATELY SINCE THE CALCULATION IS BASED ON THE 
             ASSUMPTION THAT THE WALL THICKNESS IS MUCH SMALL IN COMPARISON TO 
             THE CROSS SECTION DIMENSION
  *beamsection, elset=ASSEMBLYSUSPENSIONBRIDGE_SUSPENSIONBRIDGE_TOWER_SOUTH_CS_022, material=CONCRETE, section=BOX

 ***WARNING: ONE OR MORE THICKNESS OF THE BOX SECTION IS GREATER THAN 0.1 OF 
             THE CROSS SECTION DIMENSION. THE TORSIONAL RIGIDITY MAY NOT BE 
             EVALUATED ACCURATELY SINCE THE CALCULATION IS BASED ON THE 
             ASSUMPTION THAT THE WALL THICKNESS IS MUCH SMALL IN COMPARISON TO 
             THE CROSS SECTION DIMENSION
  *beamsection, elset=ASSEMBLYSUSPENSIONBRIDGE_SUSPENSIONBRIDGE_TOWER_NORTH_CS_022, material=CONCRETE, section=BOX

 ***WARNING: ONE OR MORE THICKNESS OF THE BOX SECTION IS GREATER THAN 0.1 OF 
             THE CROSS SECTION DIMENSION. THE TORSIONAL RIGIDITY MAY NOT BE 
             EVALUATED ACCURATELY SINCE THE CALCULATION IS BASED ON THE 
             ASSUMPTION THAT THE WALL THICKNESS IS MUCH SMALL IN COMPARISON TO 
             THE CROSS SECTION DIMENSION
  *beamsection, elset=ASSEMBLYSUSPENSIONBRIDGE_SUSPENSIONBRIDGE_TOWER_SOUTH_CS_023, material=CONCRETE, section=BOX

 ***WARNING: ONE OR MORE THICKNESS OF THE BOX SECTION IS GREATER THAN 0.1 OF 
             THE CROSS SECTION DIMENSION. THE TORSIONAL RIGIDITY MAY NOT BE 
             EVALUATED ACCURATELY SINCE THE CALCULATION IS BASED ON THE 
             ASSUMPTION THAT THE WALL THICKNESS IS MUCH SMALL IN COMPARISON TO 
             THE CROSS SECTION DIMENSION
  *beamsection, elset=ASSEMBLYSUSPENSIONBRIDGE_SUSPENSIONBRIDGE_TOWER_NORTH_CS_023, material=CONCRETE, section=BOX

 ***WARNING: ONE OR MORE THICKNESS OF THE BOX SECTION IS GREATER THAN 0.1 OF 
             THE CROSS SECTION DIMENSION. THE TORSIONAL RIGIDITY MAY NOT BE 
             EVALUATED ACCURATELY SINCE THE CALCULATION IS BASED ON THE 
             ASSUMPTION THAT THE WALL THICKNESS IS MUCH SMALL IN COMPARISON TO 
             THE CROSS SECTION DIMENSION
  *beamsection, elset=ASSEMBLYSUSPENSIONBRIDGE_SUSPENSIONBRIDGE_TOWER_SOUTH_CS_024, material=CONCRETE, section=BOX

 ***WARNING: ONE OR MORE THICKNESS OF THE BOX SECTION IS GREATER THAN 0.1 OF 
             THE CROSS SECTION DIMENSION. THE TORSIONAL RIGIDITY MAY NOT BE 
             EVALUATED ACCURATELY SINCE THE CALCULATION IS BASED ON THE 
             ASSUMPTION THAT THE WALL THICKNESS IS MUCH SMALL IN COMPARISON TO 
             THE CROSS SECTION DIMENSION
  *beamsection, elset=ASSEMBLYSUSPENSIONBRIDGE_SUSPENSIONBRIDGE_TOWER_NORTH_CS_024, material=CONCRETE, section=BOX

 ***WARNING: ONE OR MORE THICKNESS OF THE BOX SECTION IS GREATER THAN 0.1 OF 
             THE CROSS SECTION DIMENSION. THE TORSIONAL RIGIDITY MAY NOT BE 
             EVALUATED ACCURATELY SINCE THE CALCULATION IS BASED ON THE 
             ASSUMPTION THAT THE WALL THICKNESS IS MUCH SMALL IN COMPARISON TO 
             THE CROSS SECTION DIMENSION
  *beamsection, elset=ASSEMBLYSUSPENSIONBRIDGE_SUSPENSIONBRIDGE_TOWER_SOUTH_CS_025, material=CONCRETE, section=BOX

 ***WARNING: ONE OR MORE THICKNESS OF THE BOX SECTION IS GREATER THAN 0.1 OF 
             THE CROSS SECTION DIMENSION. THE TORSIONAL RIGIDITY MAY NOT BE 
             EVALUATED ACCURATELY SINCE THE CALCULATION IS BASED ON THE 
             ASSUMPTION THAT THE WALL THICKNESS IS MUCH SMALL IN COMPARISON TO 
             THE CROSS SECTION DIMENSION
  *beamsection, elset=ASSEMBLYSUSPENSIONBRIDGE_SUSPENSIONBRIDGE_TOWER_NORTH_CS_025, material=CONCRETE, section=BOX

 ***WARNING: ONE OR MORE THICKNESS OF THE BOX SECTION IS GREATER THAN 0.1 OF 
             THE CROSS SECTION DIMENSION. THE TORSIONAL RIGIDITY MAY NOT BE 
             EVALUATED ACCURATELY SINCE THE CALCULATION IS BASED ON THE 
             ASSUMPTION THAT THE WALL THICKNESS IS MUCH SMALL IN COMPARISON TO 
             THE CROSS SECTION DIMENSION
  *beamsection, elset=ASSEMBLYSUSPENSIONBRIDGE_SUSPENSIONBRIDGE_TOWER_SOUTH_CS_026, material=CONCRETE, section=BOX

 ***WARNING: ONE OR MORE THICKNESS OF THE BOX SECTION IS GREATER THAN 0.1 OF 
             THE CROSS SECTION DIMENSION. THE TORSIONAL RIGIDITY MAY NOT BE 
             EVALUATED ACCURATELY SINCE THE CALCULATION IS BASED ON THE 
             ASSUMPTION THAT THE WALL THICKNESS IS MUCH SMALL IN COMPARISON TO 
             THE CROSS SECTION DIMENSION
  *beamsection, elset=ASSEMBLYSUSPENSIONBRIDGE_SUSPENSIONBRIDGE_TOWER_NORTH_CS_026, material=CONCRETE, section=BOX

 ***WARNING: ONE OR MORE THICKNESS OF THE BOX SECTION IS GREATER THAN 0.1 OF 
             THE CROSS SECTION DIMENSION. THE TORSIONAL RIGIDITY MAY NOT BE 
             EVALUATED ACCURATELY SINCE THE CALCULATION IS BASED ON THE 
             ASSUMPTION THAT THE WALL THICKNESS IS MUCH SMALL IN COMPARISON TO 
             THE CROSS SECTION DIMENSION
  *beamsection, elset=ASSEMBLYSUSPENSIONBRIDGE_SUSPENSIONBRIDGE_TOWER_SOUTH_CS_027, material=CONCRETE, section=BOX

 ***WARNING: ONE OR MORE THICKNESS OF THE BOX SECTION IS GREATER THAN 0.1 OF 
             THE CROSS SECTION DIMENSION. THE TORSIONAL RIGIDITY MAY NOT BE 
             EVALUATED ACCURATELY SINCE THE CALCULATION IS BASED ON THE 
             ASSUMPTION THAT THE WALL THICKNESS IS MUCH SMALL IN COMPARISON TO 
             THE CROSS SECTION DIMENSION
  *beamsection, elset=ASSEMBLYSUSPENSIONBRIDGE_SUSPENSIONBRIDGE_TOWER_NORTH_CS_027, material=CONCRETE, section=BOX

 ***WARNING: ONE OR MORE THICKNESS OF THE BOX SECTION IS GREATER THAN 0.1 OF 
             THE CROSS SECTION DIMENSION. THE TORSIONAL RIGIDITY MAY NOT BE 
             EVALUATED ACCURATELY SINCE THE CALCULATION IS BASED ON THE 
             ASSUMPTION THAT THE WALL THICKNESS IS MUCH SMALL IN COMPARISON TO 
             THE CROSS SECTION DIMENSION
  *beamsection, elset=ASSEMBLYSUSPENSIONBRIDGE_SUSPENSIONBRIDGE_TOWER_SOUTH_CS_028, material=CONCRETE, section=BOX

 ***WARNING: ONE OR MORE THICKNESS OF THE BOX SECTION IS GREATER THAN 0.1 OF 
             THE CROSS SECTION DIMENSION. THE TORSIONAL RIGIDITY MAY NOT BE 
             EVALUATED ACCURATELY SINCE THE CALCULATION IS BASED ON THE 
             ASSUMPTION THAT THE WALL THICKNESS IS MUCH SMALL IN COMPARISON TO 
             THE CROSS SECTION DIMENSION
  *beamsection, elset=ASSEMBLYSUSPENSIONBRIDGE_SUSPENSIONBRIDGE_TOWER_NORTH_CS_028, material=CONCRETE, section=BOX

 ***WARNING: ONE OR MORE THICKNESS OF THE BOX SECTION IS GREATER THAN 0.1 OF 
             THE CROSS SECTION DIMENSION. THE TORSIONAL RIGIDITY MAY NOT BE 
             EVALUATED ACCURATELY SINCE THE CALCULATION IS BASED ON THE 
             ASSUMPTION THAT THE WALL THICKNESS IS MUCH SMALL IN COMPARISON TO 
             THE CROSS SECTION DIMENSION
  *beamsection, elset=ASSEMBLYSUSPENSIONBRIDGE_SUSPENSIONBRIDGE_TOWER_SOUTH_CS_029, material=CONCRETE, section=BOX

 ***WARNING: ONE OR MORE THICKNESS OF THE BOX SECTION IS GREATER THAN 0.1 OF 
             THE CROSS SECTION DIMENSION. THE TORSIONAL RIGIDITY MAY NOT BE 
             EVALUATED ACCURATELY SINCE THE CALCULATION IS BASED ON THE 
             ASSUMPTION THAT THE WALL THICKNESS IS MUCH SMALL IN COMPARISON TO 
             THE CROSS SECTION DIMENSION
  *beamsection, elset=ASSEMBLYSUSPENSIONBRIDGE_SUSPENSIONBRIDGE_TOWER_NORTH_CS_029, material=CONCRETE, section=BOX

 ***WARNING: ONE OR MORE THICKNESS OF THE BOX SECTION IS GREATER THAN 0.1 OF 
             THE CROSS SECTION DIMENSION. THE TORSIONAL RIGIDITY MAY NOT BE 
             EVALUATED ACCURATELY SINCE THE CALCULATION IS BASED ON THE 
             ASSUMPTION THAT THE WALL THICKNESS IS MUCH SMALL IN COMPARISON TO 
             THE CROSS SECTION DIMENSION
  *beamsection, elset=ASSEMBLYSUSPENSIONBRIDGE_SUSPENSIONBRIDGE_TOWER_SOUTH_CS_030, material=CONCRETE, section=BOX

 ***WARNING: ONE OR MORE THICKNESS OF THE BOX SECTION IS GREATER THAN 0.1 OF 
             THE CROSS SECTION DIMENSION. THE TORSIONAL RIGIDITY MAY NOT BE 
             EVALUATED ACCURATELY SINCE THE CALCULATION IS BASED ON THE 
             ASSUMPTION THAT THE WALL THICKNESS IS MUCH SMALL IN COMPARISON TO 
             THE CROSS SECTION DIMENSION
  *beamsection, elset=ASSEMBLYSUSPENSIONBRIDGE_SUSPENSIONBRIDGE_TOWER_NORTH_CS_030, material=CONCRETE, section=BOX

 ***WARNING: ONE OR MORE THICKNESS OF THE BOX SECTION IS GREATER THAN 0.1 OF 
             THE CROSS SECTION DIMENSION. THE TORSIONAL RIGIDITY MAY NOT BE 
             EVALUATED ACCURATELY SINCE THE CALCULATION IS BASED ON THE 
             ASSUMPTION THAT THE WALL THICKNESS IS MUCH SMALL IN COMPARISON TO 
             THE CROSS SECTION DIMENSION
  *beamsection, elset=ASSEMBLYSUSPENSIONBRIDGE_SUSPENSIONBRIDGE_TOWER_SOUTH_CS_031, material=CONCRETE, section=BOX

 ***WARNING: ONE OR MORE THICKNESS OF THE BOX SECTION IS GREATER THAN 0.1 OF 
             THE CROSS SECTION DIMENSION. THE TORSIONAL RIGIDITY MAY NOT BE 
             EVALUATED ACCURATELY SINCE THE CALCULATION IS BASED ON THE 
             ASSUMPTION THAT THE WALL THICKNESS IS MUCH SMALL IN COMPARISON TO 
             THE CROSS SECTION DIMENSION
  *beamsection, elset=ASSEMBLYSUSPENSIONBRIDGE_SUSPENSIONBRIDGE_TOWER_NORTH_CS_031, material=CONCRETE, section=BOX

 ***WARNING: ONE OR MORE THICKNESS OF THE BOX SECTION IS GREATER THAN 0.1 OF 
             THE CROSS SECTION DIMENSION. THE TORSIONAL RIGIDITY MAY NOT BE 
             EVALUATED ACCURATELY SINCE THE CALCULATION IS BASED ON THE 
             ASSUMPTION THAT THE WALL THICKNESS IS MUCH SMALL IN COMPARISON TO 
             THE CROSS SECTION DIMENSION
  *beamsection, elset=ASSEMBLYSUSPENSIONBRIDGE_SUSPENSIONBRIDGE_TOWER_SOUTH_CS_032, material=CONCRETE, section=BOX

 ***WARNING: ONE OR MORE THICKNESS OF THE BOX SECTION IS GREATER THAN 0.1 OF 
             THE CROSS SECTION DIMENSION. THE TORSIONAL RIGIDITY MAY NOT BE 
             EVALUATED ACCURATELY SINCE THE CALCULATION IS BASED ON THE 
             ASSUMPTION THAT THE WALL THICKNESS IS MUCH SMALL IN COMPARISON TO 
             THE CROSS SECTION DIMENSION
  *beamsection, elset=ASSEMBLYSUSPENSIONBRIDGE_SUSPENSIONBRIDGE_TOWER_NORTH_CS_032, material=CONCRETE, section=BOX

 ***WARNING: ONE OR MORE THICKNESS OF THE BOX SECTION IS GREATER THAN 0.1 OF 
             THE CROSS SECTION DIMENSION. THE TORSIONAL RIGIDITY MAY NOT BE 
             EVALUATED ACCURATELY SINCE THE CALCULATION IS BASED ON THE 
             ASSUMPTION THAT THE WALL THICKNESS IS MUCH SMALL IN COMPARISON TO 
             THE CROSS SECTION DIMENSION
  *beamsection, elset=ASSEMBLYSUSPENSIONBRIDGE_SUSPENSIONBRIDGE_TOWER_SOUTH_CS_033, material=CONCRETE, section=BOX

 ***WARNING: ONE OR MORE THICKNESS OF THE BOX SECTION IS GREATER THAN 0.1 OF 
             THE CROSS SECTION DIMENSION. THE TORSIONAL RIGIDITY MAY NOT BE 
             EVALUATED ACCURATELY SINCE THE CALCULATION IS BASED ON THE 
             ASSUMPTION THAT THE WALL THICKNESS IS MUCH SMALL IN COMPARISON TO 
             THE CROSS SECTION DIMENSION
  *beamsection, elset=ASSEMBLYSUSPENSIONBRIDGE_SUSPENSIONBRIDGE_TOWER_NORTH_CS_033, material=CONCRETE, section=BOX

 ***WARNING: ONE OR MORE THICKNESS OF THE BOX SECTION IS GREATER THAN 0.1 OF 
             THE CROSS SECTION DIMENSION. THE TORSIONAL RIGIDITY MAY NOT BE 
             EVALUATED ACCURATELY SINCE THE CALCULATION IS BASED ON THE 
             ASSUMPTION THAT THE WALL THICKNESS IS MUCH SMALL IN COMPARISON TO 
             THE CROSS SECTION DIMENSION
  *beamsection, elset=ASSEMBLYSUSPENSIONBRIDGE_SUSPENSIONBRIDGE_TOWER_SOUTH_CS_034, material=CONCRETE, section=BOX

 ***WARNING: ONE OR MORE THICKNESS OF THE BOX SECTION IS GREATER THAN 0.1 OF 
             THE CROSS SECTION DIMENSION. THE TORSIONAL RIGIDITY MAY NOT BE 
             EVALUATED ACCURATELY SINCE THE CALCULATION IS BASED ON THE 
             ASSUMPTION THAT THE WALL THICKNESS IS MUCH SMALL IN COMPARISON TO 
             THE CROSS SECTION DIMENSION
  *beamsection, elset=ASSEMBLYSUSPENSIONBRIDGE_SUSPENSIONBRIDGE_TOWER_NORTH_CS_034, material=CONCRETE, section=BOX

 ***WARNING: ONE OR MORE THICKNESS OF THE BOX SECTION IS GREATER THAN 0.1 OF 
             THE CROSS SECTION DIMENSION. THE TORSIONAL RIGIDITY MAY NOT BE 
             EVALUATED ACCURATELY SINCE THE CALCULATION IS BASED ON THE 
             ASSUMPTION THAT THE WALL THICKNESS IS MUCH SMALL IN COMPARISON TO 
             THE CROSS SECTION DIMENSION
  *beamsection, elset=ASSEMBLYSUSPENSIONBRIDGE_SUSPENSIONBRIDGE_TOWER_SOUTH_CS_035, material=CONCRETE, section=BOX

 ***WARNING: ONE OR MORE THICKNESS OF THE BOX SECTION IS GREATER THAN 0.1 OF 
             THE CROSS SECTION DIMENSION. THE TORSIONAL RIGIDITY MAY NOT BE 
             EVALUATED ACCURATELY SINCE THE CALCULATION IS BASED ON THE 
             ASSUMPTION THAT THE WALL THICKNESS IS MUCH SMALL IN COMPARISON TO 
             THE CROSS SECTION DIMENSION
  *beamsection, elset=ASSEMBLYSUSPENSIONBRIDGE_SUSPENSIONBRIDGE_TOWER_NORTH_CS_035, material=CONCRETE, section=BOX

 ***WARNING: ONE OR MORE THICKNESS OF THE BOX SECTION IS GREATER THAN 0.1 OF 
             THE CROSS SECTION DIMENSION. THE TORSIONAL RIGIDITY MAY NOT BE 
             EVALUATED ACCURATELY SINCE THE CALCULATION IS BASED ON THE 
             ASSUMPTION THAT THE WALL THICKNESS IS MUCH SMALL IN COMPARISON TO 
             THE CROSS SECTION DIMENSION
  *beamsection, elset=ASSEMBLYSUSPENSIONBRIDGE_SUSPENSIONBRIDGE_TOWER_SOUTH_CS_036, material=CONCRETE, section=BOX

 ***WARNING: ONE OR MORE THICKNESS OF THE BOX SECTION IS GREATER THAN 0.1 OF 
             THE CROSS SECTION DIMENSION. THE TORSIONAL RIGIDITY MAY NOT BE 
             EVALUATED ACCURATELY SINCE THE CALCULATION IS BASED ON THE 
             ASSUMPTION THAT THE WALL THICKNESS IS MUCH SMALL IN COMPARISON TO 
             THE CROSS SECTION DIMENSION
  *beamsection, elset=ASSEMBLYSUSPENSIONBRIDGE_SUSPENSIONBRIDGE_TOWER_NORTH_CS_036, material=CONCRETE, section=BOX

 ***WARNING: ONE OR MORE THICKNESS OF THE BOX SECTION IS GREATER THAN 0.1 OF 
             THE CROSS SECTION DIMENSION. THE TORSIONAL RIGIDITY MAY NOT BE 
             EVALUATED ACCURATELY SINCE THE CALCULATION IS BASED ON THE 
             ASSUMPTION THAT THE WALL THICKNESS IS MUCH SMALL IN COMPARISON TO 
             THE CROSS SECTION DIMENSION
  *beamsection, elset=ASSEMBLYSUSPENSIONBRIDGE_SUSPENSIONBRIDGE_TOWER_SOUTH_CS_037, material=CONCRETE, section=BOX

 ***WARNING: ONE OR MORE THICKNESS OF THE BOX SECTION IS GREATER THAN 0.1 OF 
             THE CROSS SECTION DIMENSION. THE TORSIONAL RIGIDITY MAY NOT BE 
             EVALUATED ACCURATELY SINCE THE CALCULATION IS BASED ON THE 
             ASSUMPTION THAT THE WALL THICKNESS IS MUCH SMALL IN COMPARISON TO 
             THE CROSS SECTION DIMENSION
  *beamsection, elset=ASSEMBLYSUSPENSIONBRIDGE_SUSPENSIONBRIDGE_TOWER_NORTH_CS_037, material=CONCRETE, section=BOX

 ***WARNING: ONE OR MORE THICKNESS OF THE BOX SECTION IS GREATER THAN 0.1 OF 
             THE CROSS SECTION DIMENSION. THE TORSIONAL RIGIDITY MAY NOT BE 
             EVALUATED ACCURATELY SINCE THE CALCULATION IS BASED ON THE 
             ASSUMPTION THAT THE WALL THICKNESS IS MUCH SMALL IN COMPARISON TO 
             THE CROSS SECTION DIMENSION
  *beamsection, elset=ASSEMBLYSUSPENSIONBRIDGE_SUSPENSIONBRIDGE_TOWER_SOUTH_CS_038, material=CONCRETE, section=BOX

 ***WARNING: ONE OR MORE THICKNESS OF THE BOX SECTION IS GREATER THAN 0.1 OF 
             THE CROSS SECTION DIMENSION. THE TORSIONAL RIGIDITY MAY NOT BE 
             EVALUATED ACCURATELY SINCE THE CALCULATION IS BASED ON THE 
             ASSUMPTION THAT THE WALL THICKNESS IS MUCH SMALL IN COMPARISON TO 
             THE CROSS SECTION DIMENSION
  *beamsection, elset=ASSEMBLYSUSPENSIONBRIDGE_SUSPENSIONBRIDGE_TOWER_NORTH_CS_038, material=CONCRETE, section=BOX

 ***WARNING: ONE OR MORE THICKNESS OF THE BOX SECTION IS GREATER THAN 0.1 OF 
             THE CROSS SECTION DIMENSION. THE TORSIONAL RIGIDITY MAY NOT BE 
             EVALUATED ACCURATELY SINCE THE CALCULATION IS BASED ON THE 
             ASSUMPTION THAT THE WALL THICKNESS IS MUCH SMALL IN COMPARISON TO 
             THE CROSS SECTION DIMENSION
  *beamsection, elset=ASSEMBLYSUSPENSIONBRIDGE_SUSPENSIONBRIDGE_TOWER_SOUTH_CS_039, material=CONCRETE, section=BOX

 ***WARNING: ONE OR MORE THICKNESS OF THE BOX SECTION IS GREATER THAN 0.1 OF 
             THE CROSS SECTION DIMENSION. THE TORSIONAL RIGIDITY MAY NOT BE 
             EVALUATED ACCURATELY SINCE THE CALCULATION IS BASED ON THE 
             ASSUMPTION THAT THE WALL THICKNESS IS MUCH SMALL IN COMPARISON TO 
             THE CROSS SECTION DIMENSION
  *beamsection, elset=ASSEMBLYSUSPENSIONBRIDGE_SUSPENSIONBRIDGE_TOWER_NORTH_CS_039, material=CONCRETE, section=BOX

 ***WARNING: ONE OR MORE THICKNESS OF THE BOX SECTION IS GREATER THAN 0.1 OF 
             THE CROSS SECTION DIMENSION. THE TORSIONAL RIGIDITY MAY NOT BE 
             EVALUATED ACCURATELY SINCE THE CALCULATION IS BASED ON THE 
             ASSUMPTION THAT THE WALL THICKNESS IS MUCH SMALL IN COMPARISON TO 
             THE CROSS SECTION DIMENSION
  *beamsection, elset=ASSEMBLYSUSPENSIONBRIDGE_SUSPENSIONBRIDGE_TOWER_SOUTH_CS_040, material=CONCRETE, section=BOX

 ***WARNING: ONE OR MORE THICKNESS OF THE BOX SECTION IS GREATER THAN 0.1 OF 
             THE CROSS SECTION DIMENSION. THE TORSIONAL RIGIDITY MAY NOT BE 
             EVALUATED ACCURATELY SINCE THE CALCULATION IS BASED ON THE 
             ASSUMPTION THAT THE WALL THICKNESS IS MUCH SMALL IN COMPARISON TO 
             THE CROSS SECTION DIMENSION
  *beamsection, elset=ASSEMBLYSUSPENSIONBRIDGE_SUSPENSIONBRIDGE_TOWER_NORTH_CS_040, material=CONCRETE, section=BOX

 ***WARNING: ONE OR MORE THICKNESS OF THE BOX SECTION IS GREATER THAN 0.1 OF 
             THE CROSS SECTION DIMENSION. THE TORSIONAL RIGIDITY MAY NOT BE 
             EVALUATED ACCURATELY SINCE THE CALCULATION IS BASED ON THE 
             ASSUMPTION THAT THE WALL THICKNESS IS MUCH SMALL IN COMPARISON TO 
             THE CROSS SECTION DIMENSION
  *beamsection, elset=ASSEMBLYSUSPENSIONBRIDGE_SUSPENSIONBRIDGE_TOWER_SOUTH_CS_041, material=CONCRETE, section=BOX

 ***WARNING: ONE OR MORE THICKNESS OF THE BOX SECTION IS GREATER THAN 0.1 OF 
             THE CROSS SECTION DIMENSION. THE TORSIONAL RIGIDITY MAY NOT BE 
             EVALUATED ACCURATELY SINCE THE CALCULATION IS BASED ON THE 
             ASSUMPTION THAT THE WALL THICKNESS IS MUCH SMALL IN COMPARISON TO 
             THE CROSS SECTION DIMENSION
  *beamsection, elset=ASSEMBLYSUSPENSIONBRIDGE_SUSPENSIONBRIDGE_TOWER_NORTH_CS_041, material=CONCRETE, section=BOX

 ***WARNING: ONE OR MORE THICKNESS OF THE BOX SECTION IS GREATER THAN 0.1 OF 
             THE CROSS SECTION DIMENSION. THE TORSIONAL RIGIDITY MAY NOT BE 
             EVALUATED ACCURATELY SINCE THE CALCULATION IS BASED ON THE 
             ASSUMPTION THAT THE WALL THICKNESS IS MUCH SMALL IN COMPARISON TO 
             THE CROSS SECTION DIMENSION
  *beamsection, elset=ASSEMBLYSUSPENSIONBRIDGE_SUSPENSIONBRIDGE_TOWER_SOUTH_CS_042, material=CONCRETE, section=BOX

 ***WARNING: ONE OR MORE THICKNESS OF THE BOX SECTION IS GREATER THAN 0.1 OF 
             THE CROSS SECTION DIMENSION. THE TORSIONAL RIGIDITY MAY NOT BE 
             EVALUATED ACCURATELY SINCE THE CALCULATION IS BASED ON THE 
             ASSUMPTION THAT THE WALL THICKNESS IS MUCH SMALL IN COMPARISON TO 
             THE CROSS SECTION DIMENSION
  *beamsection, elset=ASSEMBLYSUSPENSIONBRIDGE_SUSPENSIONBRIDGE_TOWER_NORTH_CS_042, material=CONCRETE, section=BOX

 ***WARNING: ONE OR MORE THICKNESS OF THE BOX SECTION IS GREATER THAN 0.1 OF 
             THE CROSS SECTION DIMENSION. THE TORSIONAL RIGIDITY MAY NOT BE 
             EVALUATED ACCURATELY SINCE THE CALCULATION IS BASED ON THE 
             ASSUMPTION THAT THE WALL THICKNESS IS MUCH SMALL IN COMPARISON TO 
             THE CROSS SECTION DIMENSION
  *beamsection, elset=ASSEMBLYSUSPENSIONBRIDGE_SUSPENSIONBRIDGE_TOWER_SOUTH_CS_043, material=CONCRETE, section=BOX

 ***WARNING: ONE OR MORE THICKNESS OF THE BOX SECTION IS GREATER THAN 0.1 OF 
             THE CROSS SECTION DIMENSION. THE TORSIONAL RIGIDITY MAY NOT BE 
             EVALUATED ACCURATELY SINCE THE CALCULATION IS BASED ON THE 
             ASSUMPTION THAT THE WALL THICKNESS IS MUCH SMALL IN COMPARISON TO 
             THE CROSS SECTION DIMENSION
  *beamsection, elset=ASSEMBLYSUSPENSIONBRIDGE_SUSPENSIONBRIDGE_TOWER_NORTH_CS_043, material=CONCRETE, section=BOX

 ***WARNING: ONE OR MORE THICKNESS OF THE BOX SECTION IS GREATER THAN 0.1 OF 
             THE CROSS SECTION DIMENSION. THE TORSIONAL RIGIDITY MAY NOT BE 
             EVALUATED ACCURATELY SINCE THE CALCULATION IS BASED ON THE 
             ASSUMPTION THAT THE WALL THICKNESS IS MUCH SMALL IN COMPARISON TO 
             THE CROSS SECTION DIMENSION
  *beamsection, elset=ASSEMBLYSUSPENSIONBRIDGE_SUSPENSIONBRIDGE_TOWER_SOUTH_CS_044, material=CONCRETE, section=BOX

 ***WARNING: ONE OR MORE THICKNESS OF THE BOX SECTION IS GREATER THAN 0.1 OF 
             THE CROSS SECTION DIMENSION. THE TORSIONAL RIGIDITY MAY NOT BE 
             EVALUATED ACCURATELY SINCE THE CALCULATION IS BASED ON THE 
             ASSUMPTION THAT THE WALL THICKNESS IS MUCH SMALL IN COMPARISON TO 
             THE CROSS SECTION DIMENSION
  *beamsection, elset=ASSEMBLYSUSPENSIONBRIDGE_SUSPENSIONBRIDGE_TOWER_NORTH_CS_044, material=CONCRETE, section=BOX

 ***WARNING: ONE OR MORE THICKNESS OF THE BOX SECTION IS GREATER THAN 0.1 OF 
             THE CROSS SECTION DIMENSION. THE TORSIONAL RIGIDITY MAY NOT BE 
             EVALUATED ACCURATELY SINCE THE CALCULATION IS BASED ON THE 
             ASSUMPTION THAT THE WALL THICKNESS IS MUCH SMALL IN COMPARISON TO 
             THE CROSS SECTION DIMENSION
  *beamsection, elset=ASSEMBLYSUSPENSIONBRIDGE_SUSPENSIONBRIDGE_TOWER_SOUTH_CS_045, material=CONCRETE, section=BOX

 ***WARNING: ONE OR MORE THICKNESS OF THE BOX SECTION IS GREATER THAN 0.1 OF 
             THE CROSS SECTION DIMENSION. THE TORSIONAL RIGIDITY MAY NOT BE 
             EVALUATED ACCURATELY SINCE THE CALCULATION IS BASED ON THE 
             ASSUMPTION THAT THE WALL THICKNESS IS MUCH SMALL IN COMPARISON TO 
             THE CROSS SECTION DIMENSION
  *beamsection, elset=ASSEMBLYSUSPENSIONBRIDGE_SUSPENSIONBRIDGE_TOWER_NORTH_CS_045, material=CONCRETE, section=BOX

 ***WARNING: ONE OR MORE THICKNESS OF THE BOX SECTION IS GREATER THAN 0.1 OF 
             THE CROSS SECTION DIMENSION. THE TORSIONAL RIGIDITY MAY NOT BE 
             EVALUATED ACCURATELY SINCE THE CALCULATION IS BASED ON THE 
             ASSUMPTION THAT THE WALL THICKNESS IS MUCH SMALL IN COMPARISON TO 
             THE CROSS SECTION DIMENSION
  *beamsection, elset=ASSEMBLYSUSPENSIONBRIDGE_SUSPENSIONBRIDGE_TOWER_SOUTH_CS_046, material=CONCRETE, section=BOX

 ***WARNING: ONE OR MORE THICKNESS OF THE BOX SECTION IS GREATER THAN 0.1 OF 
             THE CROSS SECTION DIMENSION. THE TORSIONAL RIGIDITY MAY NOT BE 
             EVALUATED ACCURATELY SINCE THE CALCULATION IS BASED ON THE 
             ASSUMPTION THAT THE WALL THICKNESS IS MUCH SMALL IN COMPARISON TO 
             THE CROSS SECTION DIMENSION
  *beamsection, elset=ASSEMBLYSUSPENSIONBRIDGE_SUSPENSIONBRIDGE_TOWER_NORTH_CS_046, material=CONCRETE, section=BOX

 ***WARNING: ONE OR MORE THICKNESS OF THE BOX SECTION IS GREATER THAN 0.1 OF 
             THE CROSS SECTION DIMENSION. THE TORSIONAL RIGIDITY MAY NOT BE 
             EVALUATED ACCURATELY SINCE THE CALCULATION IS BASED ON THE 
             ASSUMPTION THAT THE WALL THICKNESS IS MUCH SMALL IN COMPARISON TO 
             THE CROSS SECTION DIMENSION
  *beamsection, elset=ASSEMBLYSUSPENSIONBRIDGE_SUSPENSIONBRIDGE_TOWER_SOUTH_CS_047, material=CONCRETE, section=BOX

 ***WARNING: ONE OR MORE THICKNESS OF THE BOX SECTION IS GREATER THAN 0.1 OF 
             THE CROSS SECTION DIMENSION. THE TORSIONAL RIGIDITY MAY NOT BE 
             EVALUATED ACCURATELY SINCE THE CALCULATION IS BASED ON THE 
             ASSUMPTION THAT THE WALL THICKNESS IS MUCH SMALL IN COMPARISON TO 
             THE CROSS SECTION DIMENSION
  *beamsection, elset=ASSEMBLYSUSPENSIONBRIDGE_SUSPENSIONBRIDGE_TOWER_NORTH_CS_047, material=CONCRETE, section=BOX

 ***WARNING: ONE OR MORE THICKNESS OF THE BOX SECTION IS GREATER THAN 0.1 OF 
             THE CROSS SECTION DIMENSION. THE TORSIONAL RIGIDITY MAY NOT BE 
             EVALUATED ACCURATELY SINCE THE CALCULATION IS BASED ON THE 
             ASSUMPTION THAT THE WALL THICKNESS IS MUCH SMALL IN COMPARISON TO 
             THE CROSS SECTION DIMENSION
  *beamsection, elset=ASSEMBLYSUSPENSIONBRIDGE_SUSPENSIONBRIDGE_TOWER_SOUTH_CS_048, material=CONCRETE, section=BOX

 ***WARNING: ONE OR MORE THICKNESS OF THE BOX SECTION IS GREATER THAN 0.1 OF 
             THE CROSS SECTION DIMENSION. THE TORSIONAL RIGIDITY MAY NOT BE 
             EVALUATED ACCURATELY SINCE THE CALCULATION IS BASED ON THE 
             ASSUMPTION THAT THE WALL THICKNESS IS MUCH SMALL IN COMPARISON TO 
             THE CROSS SECTION DIMENSION
  *beamsection, elset=ASSEMBLYSUSPENSIONBRIDGE_SUSPENSIONBRIDGE_TOWER_NORTH_CS_048, material=CONCRETE, section=BOX

 ***WARNING: ONE OR MORE THICKNESS OF THE BOX SECTION IS GREATER THAN 0.1 OF 
             THE CROSS SECTION DIMENSION. THE TORSIONAL RIGIDITY MAY NOT BE 
             EVALUATED ACCURATELY SINCE THE CALCULATION IS BASED ON THE 
             ASSUMPTION THAT THE WALL THICKNESS IS MUCH SMALL IN COMPARISON TO 
             THE CROSS SECTION DIMENSION
  *beamsection, elset=ASSEMBLYSUSPENSIONBRIDGE_SUSPENSIONBRIDGE_TOWER_SOUTH_CS_049, material=CONCRETE, section=BOX

 ***WARNING: ONE OR MORE THICKNESS OF THE BOX SECTION IS GREATER THAN 0.1 OF 
             THE CROSS SECTION DIMENSION. THE TORSIONAL RIGIDITY MAY NOT BE 
             EVALUATED ACCURATELY SINCE THE CALCULATION IS BASED ON THE 
             ASSUMPTION THAT THE WALL THICKNESS IS MUCH SMALL IN COMPARISON TO 
             THE CROSS SECTION DIMENSION
  *beamsection, elset=ASSEMBLYSUSPENSIONBRIDGE_SUSPENSIONBRIDGE_TOWER_NORTH_CS_049, material=CONCRETE, section=BOX

 ***WARNING: ONE OR MORE THICKNESS OF THE BOX SECTION IS GREATER THAN 0.1 OF 
             THE CROSS SECTION DIMENSION. THE TORSIONAL RIGIDITY MAY NOT BE 
             EVALUATED ACCURATELY SINCE THE CALCULATION IS BASED ON THE 
             ASSUMPTION THAT THE WALL THICKNESS IS MUCH SMALL IN COMPARISON TO 
             THE CROSS SECTION DIMENSION
  *beamsection, elset=ASSEMBLYSUSPENSIONBRIDGE_SUSPENSIONBRIDGE_TOWER_SOUTH_CS_050, material=CONCRETE, section=BOX

 ***WARNING: ONE OR MORE THICKNESS OF THE BOX SECTION IS GREATER THAN 0.1 OF 
             THE CROSS SECTION DIMENSION. THE TORSIONAL RIGIDITY MAY NOT BE 
             EVALUATED ACCURATELY SINCE THE CALCULATION IS BASED ON THE 
             ASSUMPTION THAT THE WALL THICKNESS IS MUCH SMALL IN COMPARISON TO 
             THE CROSS SECTION DIMENSION
  *beamsection, elset=ASSEMBLYSUSPENSIONBRIDGE_SUSPENSIONBRIDGE_TOWER_NORTH_CS_050, material=CONCRETE, section=BOX

 ***WARNING: ONE OR MORE THICKNESS OF THE BOX SECTION IS GREATER THAN 0.1 OF 
             THE CROSS SECTION DIMENSION. THE TORSIONAL RIGIDITY MAY NOT BE 
             EVALUATED ACCURATELY SINCE THE CALCULATION IS BASED ON THE 
             ASSUMPTION THAT THE WALL THICKNESS IS MUCH SMALL IN COMPARISON TO 
             THE CROSS SECTION DIMENSION
  *beamsection, elset=ASSEMBLYSUSPENSIONBRIDGE_SUSPENSIONBRIDGE_TOWER_SOUTH_CS_051, material=CONCRETE, section=BOX

 ***WARNING: ONE OR MORE THICKNESS OF THE BOX SECTION IS GREATER THAN 0.1 OF 
             THE CROSS SECTION DIMENSION. THE TORSIONAL RIGIDITY MAY NOT BE 
             EVALUATED ACCURATELY SINCE THE CALCULATION IS BASED ON THE 
             ASSUMPTION THAT THE WALL THICKNESS IS MUCH SMALL IN COMPARISON TO 
             THE CROSS SECTION DIMENSION
  *beamsection, elset=ASSEMBLYSUSPENSIONBRIDGE_SUSPENSIONBRIDGE_TOWER_NORTH_CS_051, material=CONCRETE, section=BOX

 ***WARNING: ONE OR MORE THICKNESS OF THE BOX SECTION IS GREATER THAN 0.1 OF 
             THE CROSS SECTION DIMENSION. THE TORSIONAL RIGIDITY MAY NOT BE 
             EVALUATED ACCURATELY SINCE THE CALCULATION IS BASED ON THE 
             ASSUMPTION THAT THE WALL THICKNESS IS MUCH SMALL IN COMPARISON TO 
             THE CROSS SECTION DIMENSION
  *beamsection, elset=ASSEMBLYSUSPENSIONBRIDGE_SUSPENSIONBRIDGE_TOWER_SOUTH_CS_052, material=CONCRETE, section=BOX

[...]
      10     -1.28480E-08    0.11499       -2.44966E-09    -29.722       -1.54302E-07    -1854.1    
      11      1.73565E-04   -8.38189E-09   -2.69020E-03    2.41249E-06    7.16369E-02    6.02889E-05
      12     -5.12786E-04    3.94083E-08   -2.86468E-05   -1.23302E-05    -1.4312        1.63488E-06
      13      4.62690E-09     1.8953       -8.81949E-09    -580.12       -1.42145E-06    -20.870    
      14      3.53043E-08   -0.10967       -1.07701E-07    0.62622        3.40479E-06     70.931    
      15     -2.98457E-02   -1.08954E-08    0.42372       -9.83508E-07    -9.4820        8.15383E-06
      16     -1.62749E-08    0.25215       -2.78639E-09    -56.229       -1.25907E-05    -2547.5    
      17      9.02479E-09     1.5185        7.11802E-10    -414.65        7.26454E-06     453.27    
      18      1.20888E-07   -9.88329E-02    6.13446E-09     32.865        1.04788E-04    -537.21    
      19      0.19708        1.54030E-07    1.69432E-03   -5.95629E-05     369.60        5.52935E-04
      20     -1.94709E-07    3.37615E-02    2.11495E-08    -13.331       -9.36772E-04     114.61    
      21       2.2184       -8.33884E-09    0.22093        4.45179E-06     1183.9       -1.62226E-05
      22      6.56310E-03   -1.33478E-10   -2.67260E-04    7.22492E-08     4.4061        1.79951E-07
      23     -0.67681        1.69539E-09    0.51955       -7.00381E-07    -346.97       -1.58675E-06
      24     -4.06316E-09   -5.75646E-02    9.45898E-09    -17.924        2.75438E-06     72.450    
      25      -2.2688       -1.83658E-09    0.81354        7.88055E-07     642.50        2.37995E-06
      26     -2.38219E-03   -6.33624E-10    5.22848E-04    2.00767E-07   -0.29107       -5.49879E-08
      27     -1.46722E-08   -0.91240        2.35567E-09     337.01       -1.14817E-05     903.97    
      28      3.22651E-08   -9.54546E-02    8.32006E-08    -14.093       -1.07912E-06    -30.277    
      29       1.9134       -1.10575E-08    0.89833        3.21978E-06    -874.54       -4.46654E-06
      30     -1.41701E-08   -0.76739        1.94630E-08     196.39        1.30034E-05    -676.25    
      31      0.11304       -1.93467E-09    0.39347       -7.43782E-07    -71.595        4.15833E-06
      32     -3.69660E-08   -0.10566       -6.91218E-09     12.031        3.76922E-05   -0.10230    
      33      2.93231E-08   -0.21780       -2.60606E-08     13.461       -2.37914E-06    0.42753    
      34     -7.56937E-06   -2.55250E-10   -5.70156E-05    8.40155E-08    4.30382E-03    3.40256E-05
      35      2.01792E-02    1.09739E-08    1.63288E-03   -6.23723E-07     263.18        1.70901E-05
      36     -2.88763E-04   -1.06188E-08   -8.55585E-06   -6.78583E-07    -2.6725       -2.69326E-07
      37     -2.17525E-08   -5.75870E-03   -3.73415E-09    -1.2563        1.47503E-05    -665.19    
      38      2.47716E-09    0.33029       -4.86558E-09    -66.924       -1.26601E-06     9.2680    
      39     -1.18268E-02   -4.20595E-09    0.20624       -5.32703E-07     1.7532        1.33744E-05
      40     -3.47368E-07    1.83024E-03   -9.72654E-08    0.17035       -1.22164E-05     34.385    
      41      0.25772        4.63087E-09    8.84352E-03   -5.27854E-07     181.70        3.72573E-06
      42     -7.89867E-07   -1.93445E-04   -3.29083E-08   -0.36272        1.78210E-04     89.903    
      43      0.85158        1.86788E-08    2.99706E-02   -6.47586E-06    -189.18        4.28580E-05
      44      2.66557E-06   -1.17816E-02    2.90158E-07     4.9267       -5.55376E-04     4.6642    
      45      5.13634E-02    7.52543E-09    0.17257       -4.75723E-06    -10.193       -2.92448E-06
      46      1.50034E-04   -2.66096E-10    3.73100E-04    2.35785E-08   -4.83709E-02   -2.99115E-05
      47      1.02936E-03   -2.27219E-08    4.22419E-05    1.62395E-06   -0.89994       -5.33921E-07
      48      5.39314E-02   -2.56173E-09    2.14471E-03    3.77705E-07     202.07        1.28581E-04
      49      1.34589E-08   -0.25279       -2.43243E-09     16.613       -2.28269E-06    -6.1078    
      50     -3.32184E-07   -4.26584E-03   -1.55882E-08    0.18310       -8.19089E-05     302.24    
      51     -3.90559E-07   -7.04661E-04   -1.68247E-08    0.20950        9.69026E-07    -115.43    
      52      1.30134E-02   -1.15323E-08    0.14101        1.00357E-06    -1.2259        1.45041E-06
      53     -1.26694E-08    0.11842        3.81808E-10    -6.1672       -4.75595E-06     13.857    
      54      7.60206E-09   -0.21339        8.92353E-10     7.9452       -2.01455E-06     362.84    
      55     -2.85481E-09    0.57968        3.25935E-09    -12.674        1.65287E-05    -986.82    
      56     -0.15834       -2.43077E-08    4.05463E-02    2.84313E-07     281.24        6.74737E-05
      57      5.47301E-04    2.72122E-09   -3.47209E-04   -6.10793E-08    9.44125E-02   -7.02215E-06
      58      3.10695E-03    2.63807E-08    4.19595E-04    6.03910E-06    -179.58        4.18664E-05
      59      1.19404E-07    1.50096E-02    1.03248E-07     1.6605        3.30476E-04     28.304    
      60     -2.15767E-08    0.64602       -2.11235E-08    -71.476       -2.42396E-05     1107.0    
      61      2.82837E-09   -0.13443       -3.72041E-09     13.419       -7.96511E-06    -238.89    
      62      4.54093E-02    2.12379E-09    1.74107E-02    4.77906E-07    -264.28        2.86048E-06
      63     -6.94561E-04    4.00097E-09   -4.60722E-04   -3.62147E-07    7.55939E-02    9.35447E-06
      64      1.03241E-02    1.19139E-08    0.11591       -1.10423E-06   -0.49659       -5.22353E-05
      65      2.17009E-09    5.57774E-03   -9.79471E-08    0.54383       -3.83919E-06    -19.240    
      66      2.83929E-05   -1.83794E-09   -5.99430E-05    6.40452E-07   -1.28437E-02    5.80519E-05
      67     -3.94336E-09   -2.61357E-03   -1.18080E-09     1.1356       -2.39228E-06     88.207    
      68      1.25352E-04    4.57877E-08    1.10077E-05   -9.22711E-07   -0.39217       -2.27438E-06
      69      1.94302E-07   -5.27289E-03   -6.60635E-09   -0.30388       -4.25264E-04    -10.279    
      70     -3.46579E-08   -1.49413E-02    1.60295E-10    -1.0041        7.59324E-05     4.0337    
      71     -1.40480E-02   -6.02565E-08   -8.18455E-04    9.83154E-07    -141.09        3.39864E-05
      72     -3.49505E-09    0.25323       -5.38778E-10    -3.5130       -5.23713E-05    -10.436    
      73      9.10458E-03    6.57127E-10    8.96319E-02    5.19968E-06    0.26370       -2.25902E-05
      74     -9.98914E-10   -6.70628E-03    7.98022E-09    0.32493        4.78922E-06     337.16    
      75     -6.06947E-08   -4.28100E-03    2.76917E-08    -3.0026        4.43889E-06    -20.711    
      76     -4.01779E-03    5.60889E-09   -3.84933E-04    4.94353E-07     113.60       -1.31515E-05
      77     -8.52757E-09   -0.40663       -1.19118E-08    -8.7972       -1.32240E-06     266.60    
      78      6.36375E-05   -3.66930E-07    2.43675E-04   -1.07329E-05   -3.31029E-02   -2.13243E-04
      79     -2.30700E-08   -5.54952E-02   -3.12929E-08    -6.7509        9.03314E-06    -734.43    
      80      8.14827E-03   -2.38241E-07    7.40578E-02   -6.67630E-06     1.3271       -3.99274E-04
      81     -1.26885E-07    1.18129E-02    6.07281E-07    0.33699        1.12892E-04     20.533    
      82      1.51796E-10    0.47676        4.08187E-10     2.4090       -5.36304E-06     72.239    
      83     -1.16336E-04    5.67315E-07   -3.31200E-05    6.08801E-07    1.44397E-02    5.74312E-05
      84      1.17977E-08   -0.13773        7.40297E-10    -3.9639       -2.69634E-05    -555.12    
      85      6.68678E-03    2.68554E-08   -1.37759E-03    1.13966E-06    -101.66        7.33975E-05
      86     -5.22136E-02   -5.21305E-09    3.20913E-03    1.70995E-06     50.889        2.73353E-05
      87     -1.92282E-08   -6.59767E-02   -2.06458E-08    -9.3771       -2.34365E-06    -164.85    
      88     -3.79438E-04    8.56744E-05   -1.72603E-03   -1.05437E-03    -1.8887       -5.35327E-02
      89     -1.39809E-05    0.19509       -1.16720E-05    -2.2113       -9.65302E-03    -117.07    
      90      8.04412E-04    3.77045E-09   -5.15541E-03    3.62034E-07    -8.3500       -1.09797E-06
      91     -2.66331E-09    9.00871E-03    1.11804E-08     6.9383        1.44857E-05    -17.045    
      92      4.71963E-07    2.10769E-03   -1.09047E-06    -1.6772       -1.64143E-03     16.985    
      93     -0.22699        5.07352E-08    0.33524       -2.29450E-05     620.90        2.07427E-04
      94      6.29864E-10    0.62306       -5.36514E-08     6.6340       -4.45479E-06    -1008.1    
      95     -1.19048E-02   -9.87396E-08   -6.13525E-02    3.53380E-06     5.0797        1.51410E-04
      96     -1.97788E-02   -5.35871E-10   -6.04617E-02   -1.45180E-07     56.209        3.21606E-06
      97      2.99504E-03    1.69941E-10    4.19487E-03    1.20383E-08    -6.1716        3.63004E-06
      98      3.20385E-09   -9.52797E-03    1.83168E-08    -5.9159       -2.99852E-05    -20.532    
      99      9.41931E-02    9.26959E-10    0.38475        1.67380E-07    -655.25        5.55595E-06
     100      7.65988E-09    0.55011        2.23940E-09    -33.218       -6.28798E-06     899.98    


                    E F F E C T I V E   M A S S

 MODE NO    X-COMPONENT    Y-COMPONENT    Z-COMPONENT    X-ROTATION     Y-ROTATION     Z-ROTATION 

       1      5.88904E-10    7.25398E+07    7.31402E-10    7.80827E+11    1.52611E-03    7.79718E+07
       2      3.24188E-08    4.75759E-02    3.06241E-10     33628.        0.14951        3.92533E+13
       3      2.82301E+06    1.94147E-09    2.77222E+06    1.85008E-05    2.34001E+13    0.17860    
       4      9.33370E+05    3.54588E-10    8.99677E+06    1.92212E-06    5.78170E+12    4.28250E-02
       5      7.44664E-10    3.69325E+06    2.53324E-09    4.80721E+09    2.54601E-03    1.94594E+08
       6      1.03589E+05    5.48460E-09    4.73294E+07    2.90093E-04    2.43746E+10    2.18396E-03
       7      7.05043E-09    5.18441E+05    5.37668E-07    3.99310E+10    1.51931E-02    2.18745E+09
       8      3.64312E+05    3.22893E-10     436.33        3.60393E-05    9.42106E+12    1.00954E-02
       9      2.30690E-08     10.791        3.95231E-09    9.99430E+06    7.79083E-03    1.77890E+11
      10      2.90330E-09    2.32560E+05    1.05544E-10    1.55375E+10    4.18758E-07    6.04638E+13
      11      0.36297        8.46511E-10     87.200        7.01262E-05     61833.        4.37949E-02
      12       3.1509        1.86096E-08    9.83360E-03    1.82180E-03    2.45444E+07    3.20283E-05
      13      3.50621E-10    5.88301E+07    1.27393E-09    5.51186E+12    3.30916E-05    7.13325E+09
      14      3.12334E-08    3.01389E+05    2.90672E-07    9.82687E+06    2.90499E-04    1.26078E+11
      15       31588.        4.20967E-09    6.36693E+06    3.43020E-05    3.18834E+09    2.35769E-03
      16      8.75114E-09    2.10056E+06    2.56513E-10    1.04458E+11    5.23749E-03    2.14409E+14
      17      2.79624E-09    7.91657E+07    1.73948E-11    5.90297E+12    1.81183E-03    7.05356E+12
      18      8.80957E-07    5.88831E+05    2.26851E-09    6.51113E+10    0.66193        1.73968E+13
      19      1.46454E+06    8.94625E-07     108.25        0.13378        5.15110E+12     11.529    
      20      1.86454E-06     56059.        2.19990E-08    8.74020E+09     43.159        6.46005E+11
      21      9.67515E+07    1.36706E-09    9.59604E+05    3.89622E-04    2.75545E+13    5.17385E-03
      22       168.49        6.96913E-14    0.27940        2.04185E-08    7.59384E+07    1.26667E-07
      23      1.06462E+07    6.68038E-11    6.27354E+06    1.14007E-05    2.79795E+12    5.85165E-05
      24      8.52188E-11     17105.        4.61845E-10    1.65833E+09    3.91611E-05    2.70946E+10
      25      3.71001E+07    2.43112E-11    4.77030E+06    4.47609E-06    2.97528E+12    4.08245E-05
      26       20.121        1.42350E-12    0.96927        1.42916E-07    3.00403E+05    1.07209E-08
      27      1.11874E-09    4.32621E+06    2.88379E-11    5.90215E+11    6.85092E-04    4.24659E+12
      28      4.09069E-09     35803.        2.72008E-08    7.80399E+08    4.57583E-06    3.60219E+09
      29      2.00674E+07    6.70184E-10    4.42330E+06    5.68238E-05    4.19216E+12    1.09350E-04
      30      8.76511E-10    2.57061E+06    1.65359E-09    1.68371E+11    7.38108E-04    1.99630E+12
      31      4.41598E+05    1.29348E-10    5.35020E+06    1.91177E-05    1.77135E+11    5.97560E-04
      32      5.72387E-08    4.67657E+05    2.00131E-09    6.06280E+09    5.95096E-02    4.38396E+05
      33      3.22692E-08    1.78030E+06    2.54881E-08    6.80062E+09    2.12426E-04    6.85980E+06
      34      7.08665E-04    8.05848E-13    4.02077E-02    8.73053E-08     229.10        1.43197E-02
      35       13351.        3.94850E-09     87.422        1.27554E-05    2.27108E+12    9.57638E-03
      36       1.0170        1.37530E-09    8.92828E-04    5.61626E-06    8.71101E+07    8.84707E-07
      37      7.02979E-09     492.69        2.07160E-10    2.34498E+07    3.23242E-03    6.57380E+12
      38      8.36533E-11    1.48723E+06    3.22733E-10    6.10579E+10    2.18498E-05    1.17097E+09
      39       4081.0        5.16121E-10    1.24098E+06    8.27931E-06    8.96832E+07    5.21882E-03
      40      3.72790E-06     103.49        2.92281E-07    8.96485E+05    4.61075E-03    3.65287E+10
      41      1.96444E+06    6.34248E-10     2313.0        8.24067E-06    9.76468E+11    4.10541E-04
      42      2.49854E-05     1.4986        4.33701E-08    5.26880E+06     1.2719        3.23690E+11
      43      5.34706E+07    2.57254E-08     66230.        3.09213E-03    2.63884E+12    0.13543    
      44      2.22344E-04     4343.7        2.63460E-06    7.59568E+08     9.6521        6.80781E+08
      45       65074.        1.39690E-09    7.34582E+05    5.58228E-04    2.56299E+09    2.10961E-04
      46      0.28444        8.94722E-13     1.7590        7.02498E-09     29565.        1.13054E-02
      47       13.017        6.34245E-09    2.19208E-02    3.23976E-05    9.94943E+06    3.50205E-06
      48       68297.        1.54093E-10     108.01        3.34982E-06    9.58779E+11    0.38821    
      49      2.45943E-09    8.67603E+05    8.03329E-11    3.74704E+09    7.07470E-05    5.06507E+08
      50      2.35989E-06     389.17        5.19664E-09    7.17002E+05    0.14348        1.95363E+12
      51      6.09015E-06     19.825        1.13019E-08    1.75228E+06    3.74909E-05    5.31951E+11
      52       3817.0        2.99757E-09    4.48188E+05    2.27004E-05    3.38706E+07    4.74160E-05
      53      4.79727E-09    4.19128E+05    4.35682E-12    1.13673E+09    6.76013E-04    5.73860E+09
      54      3.38563E-10    2.66752E+05    4.66498E-12    3.69819E+08    2.37757E-05    7.71254E+11
      55      3.77071E-11    1.55470E+06    4.91508E-11    7.43145E+08    1.26400E-03    4.50552E+12
      56      1.25454E+05    2.95650E-09     8226.0        4.04465E-07    3.95782E+11    2.27802E-02
      57       1.1693        2.89067E-11    0.47060        1.45633E-08     34796.        1.92492E-04
      58       209.76        1.51223E-08     3.8256        7.92480E-04    7.00743E+11    3.80868E-02
      59      4.40796E-07     6965.3        3.29586E-07    8.52462E+07     3.3766        2.47679E+10
      60      1.81849E-09    1.63016E+06    1.74291E-09    1.99556E+10    2.29505E-03    4.78673E+12
      61      3.24644E-11     73339.        5.61717E-11    7.30797E+08    2.57466E-04    2.31604E+11
      62       7803.1        1.70687E-11     1147.1        8.64302E-07    2.64315E+11    3.09641E-05
      63       1.7117        5.67992E-11    0.75316        4.65353E-07     20276.        3.10492E-04
      64       2281.3        3.03794E-09    2.87564E+05    2.60970E-05    5.27799E+06    5.83987E-02
      65      2.87451E-10     1899.0        5.85585E-07    1.80526E+07    8.99675E-04    2.25963E+10
      66      1.03394E-02    4.33250E-11    4.60842E-02    5.26075E-06     2115.7        4.32223E-02
      67      2.27366E-10     99.876        2.03866E-11    1.88544E+07    8.36790E-05    1.13762E+11
      68      0.19398        2.58816E-08    1.49585E-03    1.05105E-05    1.89862E+06    6.38586E-05
      69      1.20451E-06     887.06        1.39245E-09    2.94613E+06     5.7700        3.37096E+09
      70      7.02460E-08     13055.        1.50265E-12    5.89643E+07    0.33719        9.51514E+08
      71       4383.0        8.06410E-08     14.878        2.14680E-05    4.42118E+11    2.56542E-02
      72      1.79355E-10    9.41545E+05    4.26213E-12    1.81200E+08    4.02711E-02    1.59898E+09
      73       1951.4        1.01653E-11    1.89124E+05    6.36467E-04    1.63694E+06    1.20133E-02
      74      3.23977E-11     1460.2        2.06770E-09    3.42796E+06    7.44711E-04    3.69098E+12
      75      1.07412E-07     534.37        2.23590E-08    2.62880E+08    5.74514E-04    1.25069E+10
      76       386.75        7.53723E-10     3.5500        5.85507E-06    3.09167E+11    4.14387E-03
      77      1.48407E-09    3.37441E+06    2.89574E-09    1.57938E+09    3.56883E-05    1.45056E+12
      78      5.12028E-02    1.70229E-06    0.75074        1.45646E-03     13855.        0.57493    
      79      9.47102E-09     54804.        1.74259E-08    8.11020E+08    1.45205E-03    9.59860E+12
      80       1638.1        1.40039E-06    1.35319E+05    1.09974E-03    4.34535E+07     3.9333    
      81      4.72032E-07     4091.3        1.08125E-05    3.32943E+06    0.37366        1.23612E+10
      82      6.98338E-13    6.88864E+06    5.04964E-12    1.75874E+08    8.71696E-04    1.58158E+11
      83      0.16791        3.99297E-06    1.36091E-02    4.59832E-06     2586.8        4.09208E-02
      84      2.61215E-09    3.56009E+05    1.02853E-11    2.94890E+08    1.36445E-02    5.78330E+12
      85       1123.4        1.81200E-08     47.680        3.26323E-05    2.59635E+11    0.13535    
      86      1.11757E+05    1.11401E-09     422.16        1.19860E-04    1.06159E+11    3.06306E-02
      87      8.26932E-09     97359.        9.53358E-09    1.96667E+09    1.22851E-04    6.07830E+11
      88      1.93589E-03    9.86965E-05    4.00584E-02    1.49481E-02     47966.         38.533    
      89      2.62415E-06     510.95        1.82898E-06     65647.         1.2510        1.83995E+08
      90       2.5263        5.55036E-11     103.77        5.11721E-07    2.72215E+08    4.70666E-06
      91      3.51564E-11     402.24        6.19553E-10    2.38596E+08    1.04001E-03    1.43991E+09
      92      6.12049E-06     122.06        3.26735E-05    7.72965E+07     74.031        7.92646E+09
      93      2.84218E+05    1.41986E-08    6.19933E+05    2.90404E-03    2.12655E+12    0.23733    
      94      2.16220E-12    2.11575E+06    1.56879E-08    2.39857E+08    1.08157E-04    5.53877E+12
      95       3605.0        2.47999E-07     95748.        3.17651E-04    6.56370E+08    0.58314    
      96       21477.        1.57649E-11    2.00693E+05    1.15714E-06    1.73455E+11    5.67831E-04
      97       31.809        1.02409E-13     62.399        5.13893E-10    1.35064E+08    4.67267E-05
      98      3.85657E-11     341.08        1.26054E-09    1.31492E+08    3.37809E-03    1.58395E+09
      99       34100.        3.30244E-12    5.68943E+05    1.07677E-07    1.65017E+12    1.18640E-04
     100      2.41066E-10    1.24335E+06    2.06042E-11    4.53350E+09    1.62448E-04    3.32779E+12

 TOTAL        2.26918E+08    2.48631E+08    9.18428E+07    1.33074E+13    9.47558E+13    3.95891E+14


          THE ANALYSIS HAS BEEN COMPLETED



                              ANALYSIS COMPLETE
                              WITH    201 WARNING MESSAGES ON THE DAT FILE
                              AND       1 WARNING MESSAGES ON THE MSG FILE



     JOB TIME SUMMARY
       USER TIME (SEC)      =   74.900    
       SYSTEM TIME (SEC)    =   11.100    
       TOTAL CPU TIME (SEC) =   86.000    
       WALLCLOCK TIME (SEC) =         45
