 Abaqus/Standard 3DEXPERIENCE R2017x                  DATE 10-Apr-2023 TIME 10:31:48
 SUMMARY OF JOB INFORMATION:
 STEP  INC ATT SEVERE EQUIL TOTAL  TOTAL      STEP       INC OF       DOF    IF
               DISCON ITERS ITERS  TIME/    TIME/LPF    TIME/LPF    MONITOR RIKS
               ITERS               FREQ
   1     1   1     0     2     2  0.100      0.100      0.1000    
   1     2   1     0     2     2  0.200      0.200      0.1000    
   1     3   1     0     2     2  0.350      0.350      0.1500    
   1     4   1     0     2     2  0.575      0.575      0.2250    
   1     5   1     0     2     2  0.913      0.913      0.3375    
   1     6   1     0     2     2  1.00       1.00       0.08750   
   2     1   1     0     4     4  1.00       1.00e-006  1.000e-006
   2     2   1     0     6     6  1.00       2.00e-006  1.000e-006
   2     3   1     0     6     6  1.00       3.00e-006  1.000e-006
   2     4   1     0     2     2  1.00       4.00e-006  1.000e-006
   2     5   1     0     2     2  1.00       5.00e-006  1.000e-006
   2     6   1     0     2     2  1.00       6.50e-006  1.500e-006
   2     7   1     0     3     3  1.00       8.75e-006  2.250e-006
   2     8   1     0     3     3  1.00       1.21e-005  3.375e-006
   2     9   1     0     3     3  1.00       1.72e-005  5.062e-006
   2    10   1     0     3     3  1.00       2.48e-005  7.594e-006
   2    11   1     0     3     3  1.00       3.62e-005  1.139e-005
   2    12   1     0     3     3  1.00       5.33e-005  1.709e-005
   2    13   1     0     3     3  1.00       7.89e-005  2.563e-005
   2    14   1     0     3     3  1.00       0.000117   3.844e-005
   2    15   1     0     3     3  1.00       0.000175   5.767e-005
   2    16   1     0     3     3  1.00       0.000261   8.650e-005
   2    17   1     0     3     3  1.00       0.000391   0.0001297 
   2    18   1     0     3     3  1.00       0.000586   0.0001946 
   2    19   1     0     3     3  1.00       0.000878   0.0002919 
   2    20   1     0     3     3  1.00       0.00132    0.0004379 
   2    21   1     0     3     3  1.00       0.00197    0.0006568 
   2    22   1     0     3     3  1.00       0.00296    0.0009853 
   2    23   1     0     3     3  1.00       0.00444    0.001478  
   2    24   1     0     3     3  1.01       0.00665    0.002217  
   2    25   1     0     3     3  1.01       0.00998    0.003325  
   2    26   1     0     3     3  1.01       0.0150     0.004988  
   2    27   1     0     3     3  1.02       0.0224     0.007482  
   2    28   1     0     3     3  1.03       0.0337     0.01122   
   2    29   1     0     3     3  1.05       0.0505     0.01683   
   2    30   1     0     3     3  1.08       0.0758     0.02525   
   2    31   1     0     3     3  1.11       0.114      0.03788   
   2    32   1     0     3     3  1.17       0.170      0.05682   
   2    33   1     0     3     3  1.26       0.256      0.08522   
   2    34   1     0     3     3  1.38       0.384      0.1278    
   2    35   1     0     2     2  1.58       0.575      0.1918    
   2    36   1     0     2     2  1.86       0.863      0.2876    
   2    37   1     0     2     2  2.00       1.00       0.1371    
   3     1   1     0     2     2  2.00       0.000100   0.0001000 
   3     2   1     0     1     1  2.00       0.000200   0.0001000 
   3     3   1     0     1     1  2.00       0.000350   0.0001500 
   3     4   1     0     1     1  2.00       0.000575   0.0002250 
   3     5   1     0     1     1  2.00       0.000913   0.0003375 
   3     6   1U    0     4     4  2.00       0.000913   0.0005062 
   3     6   2     0     5     5  2.00       0.00104    0.0001266 
   3     7   1     0     2     2  2.00       0.00117    0.0001266 
   3     8   1     0     2     2  2.00       0.00129    0.0001266 
   3     9   1     0     2     2  2.00       0.00148    0.0001898 
   3    10   1     0     2     2  2.00       0.00177    0.0002848 
   3    11   1     0     1     1  2.00       0.00219    0.0004271 
   3    12   1     0     1     1  2.00       0.00283    0.0006407 
   3    13   1     0     2     2  2.00       0.00380    0.0009611 
   3    14   1     0     2     2  2.01       0.00524    0.001442  
   3    15   1     0     2     2  2.01       0.00740    0.002162  
   3    16   1     0     2     2  2.01       0.0106     0.003244  
   3    17   1     0     2     2  2.02       0.0155     0.004865  
   3    18   1     0     2     2  2.02       0.0228     0.007298  
   3    19   1     0     2     2  2.03       0.0338     0.01095   
   3    20   1     0     2     2  2.05       0.0502     0.01642   
   3    21   1     0     2     2  2.07       0.0748     0.02463   
   3    22   1     0     2     2  2.11       0.112      0.03695   
   3    23   1     0     2     2  2.17       0.167      0.05542   
   3    24   1     0     2     2  2.25       0.250      0.08313   
   3    25   1     0     2     2  2.38       0.375      0.1247    
   3    26   1     0     2     2  2.56       0.562      0.1870    
   3    27   1     0     2     2  2.84       0.843      0.2806    
   3    28   1     0     2     2  3.00       1.00       0.1574    
   4     1   1     0     2     2  3.10       0.100      0.1000    
   4     2   1     0     1     1  3.20       0.200      0.1000    
   4     3   1     0     1     1  3.35       0.350      0.1500    
   4     4   1     0     1     1  3.58       0.575      0.2250    
   4     5   1     0     1     1  3.91       0.913      0.3375    
   4     6   1     0     1     1  4.00       1.00       0.08750   
   5     1   1     0     0     0  4.00       1.00e-036  1.000e-036
                          
 THE ANALYSIS HAS COMPLETED SUCCESSFULLY
