 Abaqus/Standard 3DEXPERIENCE R2017x                  DATE 26-Apr-2022 TIME 16:49:03
 SUMMARY OF JOB INFORMATION:
 STEP  INC ATT SEVERE EQUIL TOTAL  TOTAL      STEP       INC OF       DOF    IF
               DISCON ITERS ITERS  TIME/    TIME/LPF    TIME/LPF    MONITOR RIKS
               ITERS               FREQ
   1     1   1     0     2     2  0.100      0.100      0.1000    
   1     2   1     0     1     1  0.200      0.200      0.1000    
   1     3   1     0     1     1  0.350      0.350      0.1500    
   1     4   1     0     1     1  0.575      0.575      0.2250    
   1     5   1     0     1     1  0.913      0.913      0.3375    
   1     6   1     0     1     1  1.00       1.00       0.08750   
   2     1   1     0     2     2  1.00       1.00e-006  1.000e-006
   2     2   1     0     1     1  1.00       2.00e-006  1.000e-006
   2     3   1     0     1     1  1.00       3.50e-006  1.500e-006
   2     4   1     0     1     1  1.00       5.75e-006  2.250e-006
   2     5   1     0     1     1  1.00       9.12e-006  3.375e-006
   2     6   1     0     2     2  1.00       1.42e-005  5.062e-006
   2     7   1     0     2     2  1.00       2.18e-005  7.594e-006
   2     8   1     0     2     2  1.00       3.32e-005  1.139e-005
   2     9   1     0     2     2  1.00       5.03e-005  1.709e-005
   2    10   1     0     2     2  1.00       7.59e-005  2.563e-005
   2    11   1     0     2     2  1.00       0.000114   3.844e-005
   2    12   1     0     2     2  1.00       0.000172   5.767e-005
   2    13   1     0     2     2  1.00       0.000258   8.650e-005
   2    14   1     0     2     2  1.00       0.000388   0.0001297 
   2    15   1U    0     5     5  1.00       0.000388   0.0001946 
   2    15   2     0     1     1  1.00       0.000437   4.865e-005
   2    16   1     0     2     2  1.00       0.000510   7.298e-005
   2    17   1     0     4     4  1.00       0.000619   0.0001095 
   2    18   1U    0     5     5  1.00       0.000619   0.0001642 
   2    18   2     0     1     1  1.00       0.000660   4.105e-005
   2    19   1     0     1     1  1.00       0.000722   6.158e-005
   2    20   1     0     1     1  1.00       0.000814   9.237e-005
   2    21   1     0     1     1  1.00       0.000953   0.0001386 
   2    22   1U    0     5     5  1.00       0.000953   0.0002078 
   2    22   2     0     2     2  1.00       0.00100    5.196e-005
   2    23   1     0     2     2  1.00       0.00108    7.794e-005
   2    24   1     0     1     1  1.00       0.00120    0.0001169 
   2    25   1     0     1     1  1.00       0.00138    0.0001754 
   2    26   1     0     1     1  1.00       0.00164    0.0002630 
   2    27   1     0     3     3  1.00       0.00203    0.0003945 
   2    28   1     0     4     4  1.00       0.00262    0.0005918 
   2    29   1     0     6     6  1.00       0.00351    0.0008877 
   2    30   1     0     4     4  1.00       0.00440    0.0008877 
   2    31   1U    0     4     4  1.00       0.00440    0.0008877 
   2    31   2     0     3     3  1.00       0.00462    0.0002219 
   2    32   1     0     3     3  1.00       0.00495    0.0003329 
   2    33   1     0     3     3  1.01       0.00545    0.0004994 
   2    34   1     0     3     3  1.01       0.00620    0.0007490 
   2    35   1     0     4     4  1.01       0.00733    0.001124  
   2    36   1     0     4     4  1.01       0.00901    0.001685  
   2    37   1     0     2     2  1.01       0.0115     0.002528  
   2    38   1U    0     7     7  1.01       0.0115     0.003792  
   2    38   2U    0     5     5  1.01       0.0115     0.0009480 
   2    38   3     0     2     2  1.01       0.0118     0.0002370 
   2    39   1     0     3     3  1.01       0.0121     0.0003555 
   2    40   1     0     1     1  1.01       0.0127     0.0005332 
   2    41   1     0     3     3  1.01       0.0135     0.0007999 
   2    42   1     0     3     3  1.01       0.0147     0.001200  
   2    43   1     0     2     2  1.02       0.0165     0.001800  
   2    44   1     0     3     3  1.02       0.0192     0.002700  
   2    45   1     0     4     4  1.02       0.0232     0.004049  
   2    46   1     0     9     9  1.03       0.0293     0.006074  
   2    47   1U    0     4     4  1.03       0.0293     0.006074  
   2    47   2     0     3     3  1.03       0.0308     0.001518  
   2    48   1     0     1     1  1.03       0.0323     0.001518  
   2    49   1     0     2     2  1.03       0.0346     0.002278  
   2    50   1     0     3     3  1.04       0.0380     0.003417  
   2    51   1     0     3     3  1.04       0.0431     0.005125  
   2    52   1     0     4     4  1.05       0.0508     0.007687  
   2    53   1U    0     9     9  1.05       0.0508     0.01153   
   2    53   2     0     4     4  1.06       0.0566     0.005766  
   2    54   1U    0     6     6  1.06       0.0566     0.008648  
   2    54   2     0     3     3  1.06       0.0588     0.002162  
   2    55   1     0     4     4  1.06       0.0620     0.003243  
   2    56   1     0     4     4  1.07       0.0669     0.004865  
   2    57   1     0     4     4  1.07       0.0742     0.007297  
   2    58   1     0     4     4  1.09       0.0851     0.01095   
   2    59   1U    0     4     4  1.09       0.0851     0.01642   
   2    59   2     0     3     3  1.09       0.0892     0.004105  
   2    60   1     0     3     3  1.10       0.0954     0.006157  
   2    61   1     0     2     2  1.10       0.105      0.009235  
   2    62   1     0     2     2  1.12       0.118      0.01385   
   2    63   1U    0     7     7  1.12       0.118      0.02078   
   2    63   2     0     3     3  1.12       0.124      0.005195  
   2    64   1     0     4     4  1.13       0.131      0.007792  
   2    65   1     0     4     4  1.14       0.143      0.01169   
   2    66   1U    0     8     8  1.14       0.143      0.01753   
   2    66   2     0     3     3  1.15       0.148      0.004383  
   2    67   1     0     3     3  1.15       0.154      0.006575  
   2    68   1     0     3     3  1.16       0.164      0.009862  
   2    69   1     0     4     4  1.18       0.179      0.01479   
   2    70   1     0     4     4  1.20       0.201      0.02219   
   2    71   1U    0    10    10  1.20       0.201      0.03328   
   2    71   2     0     4     4  1.22       0.218      0.01664   
   2    72   1     0     4     4  1.24       0.243      0.02496   
   2    73   1     0     4     4  1.28       0.280      0.03745   
   2    74   1U    0     5     5  1.28       0.280      0.05617   
   2    74   2     0     4     4  1.29       0.294      0.01404   
   2    75   1     0     2     2  1.32       0.315      0.02106   
   2    76   1     0     2     2  1.35       0.347      0.03159   
   2    77   1     0     2     2  1.39       0.394      0.04739   
   2    78   1     0     4     4  1.47       0.465      0.07109   
   2    79   1     0     5     5  1.57       0.572      0.1066    
   2    80   1     0     2     2  1.68       0.678      0.1066    
   2    81   1     0     4     4  1.79       0.785      0.1066    
   2    82   1     0     4     4  1.95       0.945      0.1599    
   2    83   1     0     2     2  2.00       1.00       0.05500   
   3     1   1     0     4     4  2.00       1.00e-009  1.000e-009
   3     2   1     0     2     2  2.00       2.00e-009  1.000e-009
   3     3   1     0     5     5  2.00       3.50e-009  1.500e-009
   3     4   1     0     4     4  2.00       5.00e-009  1.500e-009
   3     5   1     0     1     1  2.00       6.50e-009  1.500e-009
   3     6   1     0     1     1  2.00       8.75e-009  2.250e-009
   3     7   1     0     1     1  2.00       1.21e-008  3.375e-009
   3     8   1     0     1     1  2.00       1.72e-008  5.063e-009
   3     9   1     0     1     1  2.00       2.48e-008  7.594e-009
   3    10   1     0     1     1  2.00       3.62e-008  1.139e-008
   3    11   1     0     1     1  2.00       5.33e-008  1.709e-008
   3    12   1     0     1     1  2.00       7.89e-008  2.563e-008
   3    13   1     0     2     2  2.00       1.17e-007  3.844e-008
   3    14   1     0     2     2  2.00       1.75e-007  5.767e-008
   3    15   1     0     4     4  2.00       2.61e-007  8.650e-008
   3    16   1     0     4     4  2.00       3.91e-007  1.297e-007
   3    17   1     0     2     2  2.00       5.86e-007  1.946e-007
   3    18   1     0     2     2  2.00       8.78e-007  2.919e-007
   3    19   1     0     4     4  2.00       1.32e-006  4.379e-007
   3    20   1     0     2     2  2.00       1.97e-006  6.568e-007
   3    21   1     0     2     2  2.00       2.96e-006  9.853e-007
   3    22   1     0     4     4  2.00       4.44e-006  1.478e-006
   3    23   1     0     2     2  2.00       6.65e-006  2.217e-006
   3    24   1     0     2     2  2.00       9.98e-006  3.325e-006
   3    25   1     0     2     2  2.00       1.50e-005  4.988e-006
   3    26   1     0     4     4  2.00       2.24e-005  7.482e-006
   3    27   1     0     2     2  2.00       3.37e-005  1.122e-005
   3    28   1     0     2     2  2.00       5.05e-005  1.683e-005
   3    29   1     0     2     2  2.00       7.58e-005  2.525e-005
   3    30   1     0     2     2  2.00       0.000114   3.788e-005
   3    31   1     0     2     2  2.00       0.000170   5.682e-005
   3    32   1     0     2     2  2.00       0.000256   8.522e-005
   3    33   1     0     4     4  2.00       0.000384   0.0001278 
   3    34   1     0     2     2  2.00       0.000575   0.0001918 
   3    35   1     0     2     2  2.00       0.000863   0.0002876 
   3    36   1     0     2     2  2.00       0.00129    0.0004314 
   3    37   1     0     2     2  2.00       0.00194    0.0006472 
   3    38   1     0     4     4  2.00       0.00291    0.0009707 
   3    39   1     0     2     2  2.00       0.00437    0.001456  
   3    40   1     0     2     2  2.01       0.00655    0.002184  
   3    41   1     0     2     2  2.01       0.00983    0.003276  
   3    42   1     0     2     2  2.01       0.0147     0.004914  
   3    43   1     0     2     2  2.02       0.0221     0.007372  
   3    44   1     0     2     2  2.03       0.0332     0.01106   
   3    45   1     0     2     2  2.05       0.0498     0.01659   
   3    46   1     0     2     2  2.07       0.0746     0.02488   
   3    47   1     0     2     2  2.11       0.112      0.03732   
   3    48   1     0     3     3  2.17       0.168      0.05598   
   3    49   1     0     3     3  2.25       0.252      0.08397   
   3    50   1     0     3     3  2.38       0.378      0.1259    
   3    51   1     0     3     3  2.57       0.567      0.1889    
   3    52   1     0     3     3  2.85       0.850      0.2834    
   3    53   1     0     2     2  3.00       1.00       0.1498    
   4     1   1     0     1     1  3.10       0.100      0.1000    
   4     2   1     0     3     3  3.20       0.200      0.1000    
   4     3   1     0     2     2  3.35       0.350      0.1500    
   4     4   1     0     1     1  3.58       0.575      0.2250    
   4     5   1     0     1     1  3.91       0.913      0.3375    
   4     6   1     0     1     1  4.00       1.00       0.08750   
   5     1   1     0     0     0  4.00       1.00e-036  1.000e-036
                          
 THE ANALYSIS HAS COMPLETED SUCCESSFULLY
