1

   Abaqus 3DEXPERIENCE R2017x                                  Date 26-Apr-2022   Time 16:49:03
   For use by NTNU NORGES TEKNISK NATURVITENSKAPELIGE UNIVERSITET under license from Dassault Systemes or its subsidiary.

                                                                                 
                                                                                 
 STEP    1     INCREMENT     1     STEP TIME    0.00    


                        S T E P       1     S T A T I C   A N A L Y S I S


                                                                                          

     AUTOMATIC TIME CONTROL WITH -
          A SUGGESTED INITIAL TIME INCREMENT OF                0.100    
          AND A TOTAL TIME PERIOD OF                            1.00    
          THE MINIMUM TIME INCREMENT ALLOWED IS                1.000E-06
          THE MAXIMUM TIME INCREMENT ALLOWED IS                 1.00    

     LINEAR EQUATION SOLVER TYPE         DIRECT SPARSE

 CONVERGENCE TOLERANCE PARAMETERS FOR FORCE    
     CRITERION FOR RESIDUAL FORCE     FOR A NONLINEAR PROBLEM          5.000E-03
     CRITERION FOR DISP.    CORRECTION IN A NONLINEAR PROBLEM          1.000E-02
     INITIAL VALUE OF TIME AVERAGE FORCE                               1.000E-02
     AVERAGE FORCE     IS TIME AVERAGE FORCE    
     ALTERNATE CRIT. FOR RESIDUAL FORCE     FOR A NONLINEAR PROBLEM    2.000E-02
     CRITERION FOR ZERO FORCE     RELATIVE TO TIME AVRG. FORCE         1.000E-05
     CRITERION FOR RESIDUAL FORCE     WHEN THERE IS ZERO FLUX          1.000E-05
     CRITERION FOR DISP.    CORRECTION WHEN THERE IS ZERO FLUX         1.000E-03
     CRITERION FOR RESIDUAL FORCE     FOR A LINEAR INCREMENT           1.000E-08
     FIELD CONVERSION RATIO                                             1.00    
     CRITERION FOR ZERO FORCE     REL. TO TIME AVRG. MAX. FORCE        1.000E-05
     CRITERION FOR ZERO DISP.    RELATIVE TO CHARACTERISTIC LENGTH     1.000E-08

 CONVERGENCE TOLERANCE PARAMETERS FOR MOMENT   
     CRITERION FOR RESIDUAL MOMENT    FOR A NONLINEAR PROBLEM          5.000E-03
     CRITERION FOR ROTATION CORRECTION IN A NONLINEAR PROBLEM          1.000E-02
     INITIAL VALUE OF TIME AVERAGE MOMENT                              1.000E-02
     AVERAGE MOMENT    IS TIME AVERAGE MOMENT   
     ALTERNATE CRIT. FOR RESIDUAL MOMENT    FOR A NONLINEAR PROBLEM    2.000E-02
     CRITERION FOR ZERO MOMENT    RELATIVE TO TIME AVRG. MOMENT        1.000E-05
     CRITERION FOR RESIDUAL MOMENT    WHEN THERE IS ZERO FLUX          1.000E-05
     CRITERION FOR ROTATION CORRECTION WHEN THERE IS ZERO FLUX         1.000E-03
     CRITERION FOR RESIDUAL MOMENT    FOR A LINEAR INCREMENT           1.000E-08
     FIELD CONVERSION RATIO                                             1.00    
     CRITERION FOR ZERO MOMENT    REL. TO TIME AVRG. MAX. MOMENT       1.000E-05

     VOLUMETRIC STRAIN COMPATIBILITY TOLERANCE FOR HYBRID SOLIDS       1.000E-05
     AXIAL STRAIN COMPATIBILITY TOLERANCE FOR HYBRID BEAMS             1.000E-05
     TRANS. SHEAR STRAIN COMPATIBILITY TOLERANCE FOR HYBRID BEAMS      1.000E-05
     SOFT CONTACT CONSTRAINT COMPATIBILITY TOLERANCE FOR P>P0          5.000E-03
     SOFT CONTACT CONSTRAINT COMPATIBILITY TOLERANCE FOR P=0.0         0.100    
     CONTACT FORCE ERROR TOLERANCE FOR CONVERT SDI=YES                 1.00    
     DISPLACEMENT COMPATIBILITY TOLERANCE FOR DCOUP ELEMENTS           1.000E-05
     ROTATION COMPATIBILITY TOLERANCE FOR DCOUP ELEMENTS               1.000E-05

 EQUILIBRIUM WILL BE CHECKED FOR SEVERE DISCONTINUITY ITERATIONS

 TIME INCREMENTATION CONTROL PARAMETERS:
     FIRST EQUILIBRIUM ITERATION FOR CONSECUTIVE DIVERGENCE CHECK              4
     EQUILIBRIUM ITERATION AT WHICH LOG. CONVERGENCE RATE CHECK BEGINS         8
     EQUILIBRIUM ITERATION AFTER WHICH ALTERNATE RESIDUAL IS USED              9
     MAXIMUM EQUILIBRIUM ITERATIONS ALLOWED                                   16
     EQUILIBRIUM ITERATION COUNT FOR CUT-BACK IN NEXT INCREMENT               10
     MAXIMUM EQUILIB. ITERS IN TWO INCREMENTS FOR TIME INCREMENT INCREASE      4
     MAXIMUM ITERATIONS FOR SEVERE DISCONTINUITIES                            50
     MAXIMUM ATTEMPTS ALLOWED IN AN INCREMENT                                  5
     MAXIMUM DISCON. ITERS IN TWO INCREMENTS FOR TIME INCREMENT INCREASE      50
     MAXIMUM CONTACT AUGMENTATIONS FOR *SURFACE BEHAVIOR,AUGMENTED LAGRANGE   50
     CUT-BACK FACTOR AFTER DIVERGENCE                                 0.2500    
     CUT-BACK FACTOR FOR TOO SLOW CONVERGENCE                         0.5000    
     CUT-BACK FACTOR AFTER TOO MANY EQUILIBRIUM ITERATIONS            0.7500    
     CUT-BACK FACTOR AFTER TOO MANY SEVERE DISCONTINUITY ITERATIONS   0.2500    
     CUT-BACK FACTOR AFTER PROBLEMS IN ELEMENT ASSEMBLY               0.2500    
     INCREASE FACTOR AFTER TWO INCREMENTS THAT CONVERGE QUICKLY        1.500    
     MAX. TIME INCREMENT INCREASE FACTOR ALLOWED                       1.500    
     MAX. TIME INCREMENT INCREASE FACTOR ALLOWED (DYNAMICS)            1.250    
     MAX. TIME INCREMENT INCREASE FACTOR ALLOWED (DIFFUSION)           2.000    
     MINIMUM TIME INCREMENT RATIO FOR EXTRAPOLATION TO OCCUR          0.1000    
     MAX. RATIO OF TIME INCREMENT TO STABILITY LIMIT                   1.000    
     FRACTION OF STABILITY LIMIT FOR NEW TIME INCREMENT               0.9500    
     TIME INCREMENT INCREASE FACTOR BEFORE A TIME POINT                1.000    
     GLOBAL STABILIZATION CONTROL IS NOT USED

          PRINT OF INCREMENT NUMBER, TIME, ETC., EVERY    1  INCREMENTS

     THE MAXIMUM NUMBER OF INCREMENTS IN THIS STEP IS                     100

          LARGE DISPLACEMENT THEORY WILL BE USED

     LINEAR EXTRAPOLATION WILL BE USED

     CHARACTERISTIC ELEMENT LENGTH      1.84    

     DETAILS REGARDING ACTUAL SOLUTION WAVEFRONT REQUESTED

     DETAILED OUTPUT OF DIAGNOSTICS TO DATABASE REQUESTED

     PRINT OF INCREMENT NUMBER, TIME, ETC., TO THE MESSAGE FILE EVERY     1  INCREMENTS

     ELEMENT OPERATIONS WILL BE CARRIED OUT IN PARALLEL USING   4 PROCESSORS

     PARALLEL CONTACT TRACKING ENABLED


     COLLECTING MODEL CONSTRAINT INFORMATION FOR OVERCONSTRAINT CHECKS

     COLLECTING STEP CONSTRAINT INFORMATION FOR OVERCONSTRAINT CHECKS
  
     ASYNCHRONOUS OUTPUT DATABASE FRAME FLUSH STARTED
  


  INCREMENT     1 STARTS. ATTEMPT NUMBER  1, TIME INCREMENT  0.100    
 
     INITIAL ELEMENT LOAD BALANCE
        COMPUTE NODE   1   PROCESS    NUMBER OF ELEMENTS
                              1            166
                              2            166
                              3            169
                              4            166

 ***WARNING: THERE ARE 2 UNCONNECTED REGIONS IN THE MODEL.

  NUMBER OF EQUATIONS =       648     NUMBER OF FLOATING PT. OPERATIONS =  1.60E+05

  USING THE DIRECT SOLVER WITH   4 PROCESSORS

     CHECK POINT   START OF SOLVER    

     CHECK POINT  END OF SOLVER       

       ELAPSED USER TIME (SEC)      =   0.0000    
       ELAPSED SYSTEM TIME (SEC)    =   0.0000    
       ELAPSED TOTAL CPU TIME (SEC) =   0.0000    
       ELAPSED WALLCLOCK TIME (SEC) =          0

               CONVERGENCE CHECKS FOR EQUILIBRIUM ITERATION     1


 AVERAGE FORCE                       560.       TIME AVG. FORCE        560.    
 LARGEST RESIDUAL FORCE              696.       AT NODE     101002   DOF  3
   INSTANCE: SUSPENSIONBRIDGE                                                                
 LARGEST INCREMENT OF DISP.        -7.471E-04   AT NODE     101203   DOF  1
   INSTANCE: SUSPENSIONBRIDGE                                                                
 LARGEST CORRECTION TO DISP.       -7.471E-04   AT NODE     101203   DOF  1
   INSTANCE: SUSPENSIONBRIDGE                                                                
          FORCE     EQUILIBRIUM NOT ACHIEVED WITHIN TOLERANCE.

 AVERAGE MOMENT                     1.573E+03   TIME AVG. MOMENT      1.573E+03
 LARGEST RESIDUAL MOMENT           -0.719       AT NODE     100013   DOF  4
   INSTANCE: SUSPENSIONBRIDGE                                                                
 LARGEST INCREMENT OF ROTATION     -9.271E-05   AT NODE     100021   DOF  5
   INSTANCE: SUSPENSIONBRIDGE                                                                
 LARGEST CORRECTION TO ROTATION    -9.271E-05   AT NODE     100021   DOF  5
   INSTANCE: SUSPENSIONBRIDGE                                                                
 ESTIMATE OF ROTATION CORRECTION    7.740E-07
 MOMENT    EQUILIB. ACCEPTED BASED ON SMALL RESIDUAL AND ESTIMATED CORRECTION

  NUMBER OF EQUATIONS =       648     NUMBER OF FLOATING PT. OPERATIONS =  1.60E+05

  USING THE DIRECT SOLVER WITH   4 PROCESSORS

     CHECK POINT   START OF SOLVER    

     CHECK POINT  END OF SOLVER       

       ELAPSED USER TIME (SEC)      =   0.0000    
       ELAPSED SYSTEM TIME (SEC)    =   0.0000    
       ELAPSED TOTAL CPU TIME (SEC) =   0.0000    
       ELAPSED WALLCLOCK TIME (SEC) =          0

               CONVERGENCE CHECKS FOR EQUILIBRIUM ITERATION     2


 AVERAGE FORCE                       558.       TIME AVG. FORCE        558.    
 LARGEST RESIDUAL FORCE            -2.215E-02   AT NODE     201003   DOF  1
   INSTANCE: SUSPENSIONBRIDGE                                                                
 LARGEST INCREMENT OF DISP.         7.473E-04   AT NODE     201203   DOF  1
   INSTANCE: SUSPENSIONBRIDGE                                                                
 LARGEST CORRECTION TO DISP.        1.774E-07   AT NODE     201203   DOF  1
   INSTANCE: SUSPENSIONBRIDGE                                                                
          THE FORCE     EQUILIBRIUM EQUATIONS HAVE CONVERGED

 AVERAGE MOMENT                     1.574E+03   TIME AVG. MOMENT      1.574E+03
 LARGEST RESIDUAL MOMENT           -3.319E-03   AT NODE     201003   DOF  5
   INSTANCE: SUSPENSIONBRIDGE                                                                
 LARGEST INCREMENT OF ROTATION      9.273E-05   AT NODE     201203   DOF  5
   INSTANCE: SUSPENSIONBRIDGE                                                                
 LARGEST CORRECTION TO ROTATION     2.104E-08   AT NODE     201203   DOF  5
   INSTANCE: SUSPENSIONBRIDGE                                                                
          THE MOMENT    EQUILIBRIUM EQUATIONS HAVE CONVERGED

 ITERATION SUMMARY FOR THE INCREMENT:   2 TOTAL ITERATIONS, OF WHICH
   0 ARE SEVERE DISCONTINUITY ITERATIONS AND  2 ARE EQUILIBRIUM ITERATIONS.

 TIME INCREMENT COMPLETED  0.100    ,  FRACTION OF STEP COMPLETED  0.100    
 STEP TIME COMPLETED       0.100    ,  TOTAL TIME COMPLETED        0.100    


  INCREMENT     2 STARTS. ATTEMPT NUMBER  1, TIME INCREMENT  0.100    

  NUMBER OF EQUATIONS =       648     NUMBER OF FLOATING PT. OPERATIONS =  1.60E+05

  USING THE DIRECT SOLVER WITH   4 PROCESSORS

     CHECK POINT   START OF SOLVER    

     CHECK POINT  END OF SOLVER       

       ELAPSED USER TIME (SEC)      =   0.0000    
       ELAPSED SYSTEM TIME (SEC)    =   0.0000    
       ELAPSED TOTAL CPU TIME (SEC) =   0.0000    
       ELAPSED WALLCLOCK TIME (SEC) =          0

               CONVERGENCE CHECKS FOR EQUILIBRIUM ITERATION     1


 AVERAGE FORCE                      2.710E+03   TIME AVG. FORCE       1.634E+03
 LARGEST RESIDUAL FORCE             -2.28       AT NODE     110013   DOF  3
   INSTANCE: SUSPENSIONBRIDGE                                                                
 LARGEST INCREMENT OF DISP.         7.477E-04   AT NODE     201203   DOF  1
   INSTANCE: SUSPENSIONBRIDGE                                                                
 LARGEST CORRECTION TO DISP.        3.541E-07   AT NODE     201203   DOF  1
   INSTANCE: SUSPENSIONBRIDGE                                                                
          THE FORCE     EQUILIBRIUM EQUATIONS HAVE CONVERGED

 AVERAGE MOMENT                     3.633E+03   TIME AVG. MOMENT      2.603E+03
 LARGEST RESIDUAL MOMENT             1.76       AT NODE     110013   DOF  4
   INSTANCE: SUSPENSIONBRIDGE                                                                
 LARGEST INCREMENT OF ROTATION      9.278E-05   AT NODE     201203   DOF  5
   INSTANCE: SUSPENSIONBRIDGE                                                                
 LARGEST CORRECTION TO ROTATION     4.200E-08   AT NODE     201203   DOF  5
   INSTANCE: SUSPENSIONBRIDGE                                                                
          THE MOMENT    EQUILIBRIUM EQUATIONS HAVE CONVERGED
          TIME INCREMENT MAY NOW INCREASE TO    0.150    

 ITERATION SUMMARY FOR THE INCREMENT:   1 TOTAL ITERATIONS, OF WHICH
   0 ARE SEVERE DISCONTINUITY ITERATIONS AND  1 ARE EQUILIBRIUM ITERATIONS.

 TIME INCREMENT COMPLETED  0.100    ,  FRACTION OF STEP COMPLETED  0.200    
 STEP TIME COMPLETED       0.200    ,  TOTAL TIME COMPLETED        0.200    


  INCREMENT     3 STARTS. ATTEMPT NUMBER  1, TIME INCREMENT  0.150    

  NUMBER OF EQUATIONS =       648     NUMBER OF FLOATING PT. OPERATIONS =  1.60E+05

  USING THE DIRECT SOLVER WITH   4 PROCESSORS

     CHECK POINT   START OF SOLVER    

     CHECK POINT  END OF SOLVER       

       ELAPSED USER TIME (SEC)      =  0.10000    
       ELAPSED SYSTEM TIME (SEC)    =   0.0000    
       ELAPSED TOTAL CPU TIME (SEC) =  0.10000    
       ELAPSED WALLCLOCK TIME (SEC) =          1

               CONVERGENCE CHECKS FOR EQUILIBRIUM ITERATION     1


 AVERAGE FORCE                      4.742E+03   TIME AVG. FORCE       2.670E+03
 LARGEST RESIDUAL FORCE              4.28       AT NODE     101102   DOF  3
   INSTANCE: SUSPENSIONBRIDGE                                                                
 LARGEST INCREMENT OF DISP.         1.122E-03   AT NODE     201203   DOF  1
   INSTANCE: SUSPENSIONBRIDGE                                                                
 LARGEST CORRECTION TO DISP.        6.646E-07   AT NODE     201203   DOF  1
   INSTANCE: SUSPENSIONBRIDGE                                                                
          THE FORCE     EQUILIBRIUM EQUATIONS HAVE CONVERGED

 AVERAGE MOMENT                     6.359E+03   TIME AVG. MOMENT      3.855E+03
 LARGEST RESIDUAL MOMENT             3.31       AT NODE     210013   DOF  4
   INSTANCE: SUSPENSIONBRIDGE                                                                
 LARGEST INCREMENT OF ROTATION      1.392E-04   AT NODE     201203   DOF  5
   INSTANCE: SUSPENSIONBRIDGE                                                                
 LARGEST CORRECTION TO ROTATION    -7.883E-08   AT NODE     101203   DOF  5
   INSTANCE: SUSPENSIONBRIDGE                                                                
          THE MOMENT    EQUILIBRIUM EQUATIONS HAVE CONVERGED
          TIME INCREMENT MAY NOW INCREASE TO    0.225    

 ITERATION SUMMARY FOR THE INCREMENT:   1 TOTAL ITERATIONS, OF WHICH
   0 ARE SEVERE DISCONTINUITY ITERATIONS AND  1 ARE EQUILIBRIUM ITERATIONS.

 TIME INCREMENT COMPLETED  0.150    ,  FRACTION OF STEP COMPLETED  0.350    
 STEP TIME COMPLETED       0.350    ,  TOTAL TIME COMPLETED        0.350    


  INCREMENT     4 STARTS. ATTEMPT NUMBER  1, TIME INCREMENT  0.225    

  NUMBER OF EQUATIONS =       648     NUMBER OF FLOATING PT. OPERATIONS =  1.60E+05

  USING THE DIRECT SOLVER WITH   4 PROCESSORS

     CHECK POINT   START OF SOLVER    

     CHECK POINT  END OF SOLVER       

       ELAPSED USER TIME (SEC)      =  0.10000    
       ELAPSED SYSTEM TIME (SEC)    =   0.0000    
       ELAPSED TOTAL CPU TIME (SEC) =  0.10000    
       ELAPSED WALLCLOCK TIME (SEC) =          0

               CONVERGENCE CHECKS FOR EQUILIBRIUM ITERATION     1


 AVERAGE FORCE                      7.790E+03   TIME AVG. FORCE       3.950E+03
 LARGEST RESIDUAL FORCE             -9.63       AT NODE     200013   DOF  3
   INSTANCE: SUSPENSIONBRIDGE                                                                
 LARGEST INCREMENT OF DISP.         1.685E-03   AT NODE     201203   DOF  1
   INSTANCE: SUSPENSIONBRIDGE                                                                
 LARGEST CORRECTION TO DISP.       -1.497E-06   AT NODE     101203   DOF  1
   INSTANCE: SUSPENSIONBRIDGE                                                                
          THE FORCE     EQUILIBRIUM EQUATIONS HAVE CONVERGED

 AVERAGE MOMENT                     1.045E+04   TIME AVG. MOMENT      5.504E+03
 LARGEST RESIDUAL MOMENT             7.46       AT NODE     110013   DOF  4
   INSTANCE: SUSPENSIONBRIDGE                                                                
 LARGEST INCREMENT OF ROTATION     -2.090E-04   AT NODE     101203   DOF  5
   INSTANCE: SUSPENSIONBRIDGE                                                                
 LARGEST CORRECTION TO ROTATION    -1.775E-07   AT NODE     101203   DOF  5
   INSTANCE: SUSPENSIONBRIDGE                                                                
          THE MOMENT    EQUILIBRIUM EQUATIONS HAVE CONVERGED
          TIME INCREMENT MAY NOW INCREASE TO    0.338    

 ITERATION SUMMARY FOR THE INCREMENT:   1 TOTAL ITERATIONS, OF WHICH
   0 ARE SEVERE DISCONTINUITY ITERATIONS AND  1 ARE EQUILIBRIUM ITERATIONS.

 TIME INCREMENT COMPLETED  0.225    ,  FRACTION OF STEP COMPLETED  0.575    
 STEP TIME COMPLETED       0.575    ,  TOTAL TIME COMPLETED        0.575    


  INCREMENT     5 STARTS. ATTEMPT NUMBER  1, TIME INCREMENT  0.338    

  NUMBER OF EQUATIONS =       648     NUMBER OF FLOATING PT. OPERATIONS =  1.60E+05

  USING THE DIRECT SOLVER WITH   4 PROCESSORS

     CHECK POINT   START OF SOLVER    

     CHECK POINT  END OF SOLVER       

       ELAPSED USER TIME (SEC)      =   0.0000    
       ELAPSED SYSTEM TIME (SEC)    =   0.0000    
       ELAPSED TOTAL CPU TIME (SEC) =   0.0000    
       ELAPSED WALLCLOCK TIME (SEC) =          0

               CONVERGENCE CHECKS FOR EQUILIBRIUM ITERATION     1


 AVERAGE FORCE                      1.224E+04   TIME AVG. FORCE       5.608E+03
 LARGEST RESIDUAL FORCE              21.7       AT NODE     101102   DOF  3
   INSTANCE: SUSPENSIONBRIDGE                                                                
 LARGEST INCREMENT OF DISP.         2.531E-03   AT NODE     201203   DOF  1
   INSTANCE: SUSPENSIONBRIDGE                                                                
 LARGEST CORRECTION TO DISP.        3.373E-06   AT NODE     201203   DOF  1
   INSTANCE: SUSPENSIONBRIDGE                                                                
          THE FORCE     EQUILIBRIUM EQUATIONS HAVE CONVERGED

 AVERAGE MOMENT                     1.660E+04   TIME AVG. MOMENT      7.723E+03
 LARGEST RESIDUAL MOMENT             16.8       AT NODE     110013   DOF  4
   INSTANCE: SUSPENSIONBRIDGE                                                                
 LARGEST INCREMENT OF ROTATION      3.140E-04   AT NODE     201203   DOF  5
   INSTANCE: SUSPENSIONBRIDGE                                                                
 LARGEST CORRECTION TO ROTATION     4.000E-07   AT NODE     201203   DOF  5
   INSTANCE: SUSPENSIONBRIDGE                                                                
          THE MOMENT    EQUILIBRIUM EQUATIONS HAVE CONVERGED

 ITERATION SUMMARY FOR THE INCREMENT:   1 TOTAL ITERATIONS, OF WHICH
   0 ARE SEVERE DISCONTINUITY ITERATIONS AND  1 ARE EQUILIBRIUM ITERATIONS.

 TIME INCREMENT COMPLETED  0.338    ,  FRACTION OF STEP COMPLETED  0.913    
 STEP TIME COMPLETED       0.913    ,  TOTAL TIME COMPLETED        0.913    


  INCREMENT     6 STARTS. ATTEMPT NUMBER  1, TIME INCREMENT  8.750E-02

  NUMBER OF EQUATIONS =       648     NUMBER OF FLOATING PT. OPERATIONS =  1.60E+05

  USING THE DIRECT SOLVER WITH   4 PROCESSORS

     CHECK POINT   START OF SOLVER    

     CHECK POINT  END OF SOLVER       

       ELAPSED USER TIME (SEC)      =   0.0000    
       ELAPSED SYSTEM TIME (SEC)    =   0.0000    
       ELAPSED TOTAL CPU TIME (SEC) =   0.0000    
       ELAPSED WALLCLOCK TIME (SEC) =          0

               CONVERGENCE CHECKS FOR EQUILIBRIUM ITERATION     1


 AVERAGE FORCE                      1.355E+04   TIME AVG. FORCE       6.931E+03
 LARGEST RESIDUAL FORCE              4.27       AT NODE     101102   DOF  3
   INSTANCE: SUSPENSIONBRIDGE                                                                
 LARGEST INCREMENT OF DISP.         6.567E-04   AT NODE     201203   DOF  1
   INSTANCE: SUSPENSIONBRIDGE                                                                
 LARGEST CORRECTION TO DISP.        6.646E-07   AT NODE     201203   DOF  1
   INSTANCE: SUSPENSIONBRIDGE                                                                
          THE FORCE     EQUILIBRIUM EQUATIONS HAVE CONVERGED

 AVERAGE MOMENT                     1.819E+04   TIME AVG. MOMENT      9.469E+03
 LARGEST RESIDUAL MOMENT             3.30       AT NODE     110013   DOF  4
   INSTANCE: SUSPENSIONBRIDGE                                                                
 LARGEST INCREMENT OF ROTATION     -8.148E-05   AT NODE     101203   DOF  5
   INSTANCE: SUSPENSIONBRIDGE                                                                
 LARGEST CORRECTION TO ROTATION    -7.884E-08   AT NODE     101203   DOF  5
   INSTANCE: SUSPENSIONBRIDGE                                                                
          THE MOMENT    EQUILIBRIUM EQUATIONS HAVE CONVERGED

 ITERATION SUMMARY FOR THE INCREMENT:   1 TOTAL ITERATIONS, OF WHICH
   0 ARE SEVERE DISCONTINUITY ITERATIONS AND  1 ARE EQUILIBRIUM ITERATIONS.

 TIME INCREMENT COMPLETED  8.750E-02,  FRACTION OF STEP COMPLETED   1.00    
 STEP TIME COMPLETED        1.00    ,  TOTAL TIME COMPLETED         1.00    
1

   Abaqus 3DEXPERIENCE R2017x                                  Date 26-Apr-2022   Time 16:49:04
   For use by NTNU NORGES TEKNISK NATURVITENSKAPELIGE UNIVERSITET under license from Dassault Systemes or its subsidiary.

                                                                                 
                                                                                 
 STEP    2     INCREMENT     1     STEP TIME    0.00    


                        S T E P       2     S T A T I C   A N A L Y S I S


                                                                                          

     AUTOMATIC TIME CONTROL WITH -
          A SUGGESTED INITIAL TIME INCREMENT OF                1.000E-06
          AND A TOTAL TIME PERIOD OF                            1.00    
          THE MINIMUM TIME INCREMENT ALLOWED IS                1.000E-12
          THE MAXIMUM TIME INCREMENT ALLOWED IS                 1.00    

     LINEAR EQUATION SOLVER TYPE         DIRECT SPARSE

 CONVERGENCE TOLERANCE PARAMETERS FOR FORCE    
     CRITERION FOR RESIDUAL FORCE     FOR A NONLINEAR PROBLEM          5.000E-03
     CRITERION FOR DISP.    CORRECTION IN A NONLINEAR PROBLEM          1.000E-02
     INIT. VALUE OF TIME AVG. FORCE     IS TIME AVG. FORCE     IN PREVIOUS STEP
     AVERAGE FORCE     IS TIME AVERAGE FORCE    
     ALTERNATE CRIT. FOR RESIDUAL FORCE     FOR A NONLINEAR PROBLEM    2.000E-02
     CRITERION FOR ZERO FORCE     RELATIVE TO TIME AVRG. FORCE         1.000E-05
     CRITERION FOR RESIDUAL FORCE     WHEN THERE IS ZERO FLUX          1.000E-05
     CRITERION FOR DISP.    CORRECTION WHEN THERE IS ZERO FLUX         1.000E-03
     CRITERION FOR RESIDUAL FORCE     FOR A LINEAR INCREMENT           1.000E-08
     FIELD CONVERSION RATIO                                             1.00    
     CRITERION FOR ZERO FORCE     REL. TO TIME AVRG. MAX. FORCE        1.000E-05
     CRITERION FOR ZERO DISP.    RELATIVE TO CHARACTERISTIC LENGTH     1.000E-08

 CONVERGENCE TOLERANCE PARAMETERS FOR MOMENT   
     CRITERION FOR RESIDUAL MOMENT    FOR A NONLINEAR PROBLEM          5.000E-03
     CRITERION FOR ROTATION CORRECTION IN A NONLINEAR PROBLEM          1.000E-02
     INIT. VALUE OF TIME AVG. MOMENT    IS TIME AVG. MOMENT    IN PREVIOUS STEP
     AVERAGE MOMENT    IS TIME AVERAGE MOMENT   
     ALTERNATE CRIT. FOR RESIDUAL MOMENT    FOR A NONLINEAR PROBLEM    2.000E-02
     CRITERION FOR ZERO MOMENT    RELATIVE TO TIME AVRG. MOMENT        1.000E-05
     CRITERION FOR RESIDUAL MOMENT    WHEN THERE IS ZERO FLUX          1.000E-05
     CRITERION FOR ROTATION CORRECTION WHEN THERE IS ZERO FLUX         1.000E-03
     CRITERION FOR RESIDUAL MOMENT    FOR A LINEAR INCREMENT           1.000E-08
     FIELD CONVERSION RATIO                                             1.00    
     CRITERION FOR ZERO MOMENT    REL. TO TIME AVRG. MAX. MOMENT       1.000E-05

     VOLUMETRIC STRAIN COMPATIBILITY TOLERANCE FOR HYBRID SOLIDS       1.000E-05
     AXIAL STRAIN COMPATIBILITY TOLERANCE FOR HYBRID BEAMS             1.000E-05
     TRANS. SHEAR STRAIN COMPATIBILITY TOLERANCE FOR HYBRID BEAMS      1.000E-05
     SOFT CONTACT CONSTRAINT COMPATIBILITY TOLERANCE FOR P>P0          5.000E-03
     SOFT CONTACT CONSTRAINT COMPATIBILITY TOLERANCE FOR P=0.0         0.100    
     CONTACT FORCE ERROR TOLERANCE FOR CONVERT SDI=YES                 1.00    
     DISPLACEMENT COMPATIBILITY TOLERANCE FOR DCOUP ELEMENTS           1.000E-05
     ROTATION COMPATIBILITY TOLERANCE FOR DCOUP ELEMENTS               1.000E-05

 EQUILIBRIUM WILL BE CHECKED FOR SEVERE DISCONTINUITY ITERATIONS

 TIME INCREMENTATION CONTROL PARAMETERS:
     FIRST EQUILIBRIUM ITERATION FOR CONSECUTIVE DIVERGENCE CHECK              4
     EQUILIBRIUM ITERATION AT WHICH LOG. CONVERGENCE RATE CHECK BEGINS         8
     EQUILIBRIUM ITERATION AFTER WHICH ALTERNATE RESIDUAL IS USED              9
     MAXIMUM EQUILIBRIUM ITERATIONS ALLOWED                                   16
     EQUILIBRIUM ITERATION COUNT FOR CUT-BACK IN NEXT INCREMENT               10
     MAXIMUM EQUILIB. ITERS IN TWO INCREMENTS FOR TIME INCREMENT INCREASE      4
     MAXIMUM ITERATIONS FOR SEVERE DISCONTINUITIES                            50
     MAXIMUM ATTEMPTS ALLOWED IN AN INCREMENT                                  5
     MAXIMUM DISCON. ITERS IN TWO INCREMENTS FOR TIME INCREMENT INCREASE      50
     MAXIMUM CONTACT AUGMENTATIONS FOR *SURFACE BEHAVIOR,AUGMENTED LAGRANGE   50
     CUT-BACK FACTOR AFTER DIVERGENCE                                 0.2500    
     CUT-BACK FACTOR FOR TOO SLOW CONVERGENCE                         0.5000    
     CUT-BACK FACTOR AFTER TOO MANY EQUILIBRIUM ITERATIONS            0.7500    
     CUT-BACK FACTOR AFTER TOO MANY SEVERE DISCONTINUITY ITERATIONS   0.2500    
     CUT-BACK FACTOR AFTER PROBLEMS IN ELEMENT ASSEMBLY               0.2500    
     INCREASE FACTOR AFTER TWO INCREMENTS THAT CONVERGE QUICKLY        1.500    
     MAX. TIME INCREMENT INCREASE FACTOR ALLOWED                       1.500    
     MAX. TIME INCREMENT INCREASE FACTOR ALLOWED (DYNAMICS)            1.250    
     MAX. TIME INCREMENT INCREASE FACTOR ALLOWED (DIFFUSION)           2.000    
     MINIMUM TIME INCREMENT RATIO FOR EXTRAPOLATION TO OCCUR          0.1000    
     MAX. RATIO OF TIME INCREMENT TO STABILITY LIMIT                   1.000    
     FRACTION OF STABILITY LIMIT FOR NEW TIME INCREMENT               0.9500    
     TIME INCREMENT INCREASE FACTOR BEFORE A TIME POINT                1.000    
     GLOBAL STABILIZATION CONTROL IS NOT USED

          PRINT OF INCREMENT NUMBER, TIME, ETC., EVERY    1  INCREMENTS

     THE MAXIMUM NUMBER OF INCREMENTS IN THIS STEP IS                     100

          LARGE DISPLACEMENT THEORY WILL BE USED

     LINEAR EXTRAPOLATION WILL BE USED

     CHARACTERISTIC ELEMENT LENGTH      1.84    

     DETAILS REGARDING ACTUAL SOLUTION WAVEFRONT REQUESTED

     DETAILED OUTPUT OF DIAGNOSTICS TO DATABASE REQUESTED

     PRINT OF INCREMENT NUMBER, TIME, ETC., TO THE MESSAGE FILE EVERY     1  INCREMENTS

     ELEMENT OPERATIONS WILL BE CARRIED OUT IN PARALLEL USING   4 PROCESSORS

     COLLECTING STEP CONSTRAINT INFORMATION FOR OVERCONSTRAINT CHECKS
  
     ASYNCHRONOUS OUTPUT DATABASE FRAME FLUSH STARTED
  


  INCREMENT     1 STARTS. ATTEMPT NUMBER  1, TIME INCREMENT  1.000E-06
 
     INITIAL ELEMENT LOAD BALANCE
        COMPUTE NODE   1   PROCESS    NUMBER OF ELEMENTS
                              1            166
                              2            166
                              3            169
                              4            166

  NUMBER OF EQUATIONS =      2676     NUMBER OF FLOATING PT. OPERATIONS =  6.82E+05

  USING THE DIRECT SOLVER WITH   4 PROCESSORS

     CHECK POINT   START OF SOLVER    

     CHECK POINT  END OF SOLVER       

       ELAPSED USER TIME (SEC)      =  0.10000    
       ELAPSED SYSTEM TIME (SEC)    =   0.0000    
       ELAPSED TOTAL CPU TIME (SEC) =  0.10000    
       ELAPSED WALLCLOCK TIME (SEC) =          0
 

 ***WARNING: SOLVER PROBLEM. NUMERICAL SINGULARITY WHEN PROCESSING NODE 
             SUSPENSIONBRIDGE.20055 D.O.F. 2 RATIO = 5.72829E+09.

               CONVERGENCE CHECKS FOR EQUILIBRIUM ITERATION     1


 AVERAGE FORCE                      6.180E+03   TIME AVG. FORCE       6.180E+03
 LARGEST RESIDUAL FORCE             -2.83       AT NODE      20077   DOF  3
   INSTANCE: SUSPENSIONBRIDGE                                                                
 LARGEST INCREMENT OF DISP.        -1.813E-03   AT NODE      20104   DOF  3
   INSTANCE: SUSPENSIONBRIDGE                                                                
 LARGEST CORRECTION TO DISP.       -1.813E-03   AT NODE      20104   DOF  3
   INSTANCE: SUSPENSIONBRIDGE                                                                
          DISP.    CORRECTION TOO LARGE COMPARED TO DISP.    INCREMENT

 AVERAGE MOMENT                     1.819E+04   TIME AVG. MOMENT      1.819E+04
 LARGEST RESIDUAL MOMENT           -0.139       AT NODE      10075   DOF  5
   INSTANCE: SUSPENSIONBRIDGE                                                                
 LARGEST INCREMENT OF ROTATION     -1.582E-04   AT NODE      20127   DOF  5
   INSTANCE: SUSPENSIONBRIDGE                                                                
 LARGEST CORRECTION TO ROTATION    -1.582E-04   AT NODE      20127   DOF  5
   INSTANCE: SUSPENSIONBRIDGE                                                                
          ROTATION CORRECTION TOO LARGE COMPARED TO ROTATION INCREMENT

  NUMBER OF EQUATIONS =      2676     NUMBER OF FLOATING PT. OPERATIONS =  6.82E+05

  USING THE DIRECT SOLVER WITH   4 PROCESSORS

     CHECK POINT   START OF SOLVER    

     CHECK POINT  END OF SOLVER       

       ELAPSED USER TIME (SEC)      =  0.10000    
       ELAPSED SYSTEM TIME (SEC)    =   0.0000    
       ELAPSED TOTAL CPU TIME (SEC) =  0.10000    
       ELAPSED WALLCLOCK TIME (SEC) =          0
 

 ***WARNING: SOLVER PROBLEM. NUMERICAL SINGULARITY WHEN PROCESSING NODE 
             SUSPENSIONBRIDGE.20055 D.O.F. 2 RATIO = 5.71119E+09.

               CONVERGENCE CHECKS FOR EQUILIBRIUM ITERATION     2


 AVERAGE FORCE                      1.355E+04   TIME AVG. FORCE       1.355E+04
 LARGEST RESIDUAL FORCE             1.593E-02   AT NODE     101004   DOF  1
   INSTANCE: SUSPENSIONBRIDGE                                                                
 LARGEST INCREMENT OF DISP.        -1.803E-03   AT NODE      20104   DOF  3
   INSTANCE: SUSPENSIONBRIDGE                                                                
 LARGEST CORRECTION TO DISP.        1.024E-05   AT NODE      10024   DOF  3
   INSTANCE: SUSPENSIONBRIDGE                                                                
          THE FORCE     EQUILIBRIUM EQUATIONS HAVE CONVERGED

 AVERAGE MOMENT                     1.820E+04   TIME AVG. MOMENT      1.820E+04
 LARGEST RESIDUAL MOMENT            2.382E-03   AT NODE     400006   DOF  5
   INSTANCE: SUSPENSIONBRIDGE                                                                
 LARGEST INCREMENT OF ROTATION     -1.573E-04   AT NODE      20127   DOF  5
   INSTANCE: SUSPENSIONBRIDGE                                                                
 LARGEST CORRECTION TO ROTATION    -8.748E-07   AT NODE      10001   DOF  5
   INSTANCE: SUSPENSIONBRIDGE                                                                
          THE MOMENT    EQUILIBRIUM EQUATIONS HAVE CONVERGED

 ITERATION SUMMARY FOR THE INCREMENT:   2 TOTAL ITERATIONS, OF WHICH
   0 ARE SEVERE DISCONTINUITY ITERATIONS AND  2 ARE EQUILIBRIUM ITERATIONS.

 TIME INCREMENT COMPLETED  1.000E-06,  FRACTION OF STEP COMPLETED  1.000E-06
 STEP TIME COMPLETED       1.000E-06,  TOTAL TIME COMPLETED         1.00    


  INCREMENT     2 STARTS. ATTEMPT NUMBER  1, TIME INCREMENT  1.000E-06

  NUMBER OF EQUATIONS =      2676     NUMBER OF FLOATING PT. OPERATIONS =  6.82E+05

  USING THE DIRECT SOLVER WITH   4 PROCESSORS

     CHECK POINT   START OF SOLVER    

     CHECK POINT  END OF SOLVER       

       ELAPSED USER TIME (SEC)      =  0.10000    
       ELAPSED SYSTEM TIME (SEC)    =  0.10000    
       ELAPSED TOTAL CPU TIME (SEC) =  0.20000    
       ELAPSED WALLCLOCK TIME (SEC) =          0
 

 ***WARNING: SOLVER PROBLEM. NUMERICAL SINGULARITY WHEN PROCESSING NODE 
             SUSPENSIONBRIDGE.20055 D.O.F. 2 RATIO = 5.72744E+09.

               CONVERGENCE CHECKS FOR EQUILIBRIUM ITERATION     1


 AVERAGE FORCE                      8.927E+03   TIME AVG. FORCE       1.124E+04
 LARGEST RESIDUAL FORCE            -2.941E-02   AT NODE     401005   DOF  1
   INSTANCE: SUSPENSIONBRIDGE                                                                
 LARGEST INCREMENT OF DISP.        -1.738E-03   AT NODE      10104   DOF  3
   INSTANCE: SUSPENSIONBRIDGE                                                                
 LARGEST CORRECTION TO DISP.        6.497E-05   AT NODE      20104   DOF  3
   INSTANCE: SUSPENSIONBRIDGE                                                                
 ESTIMATE OF DISP.    CORRECTION    3.413E-07
 FORCE     EQUILIB. ACCEPTED BASED ON SMALL RESIDUAL AND ESTIMATED CORRECTION

 AVERAGE MOMENT                     1.820E+04   TIME AVG. MOMENT      1.820E+04
 LARGEST RESIDUAL MOMENT            4.412E-03   AT NODE     201003   DOF  5
   INSTANCE: SUSPENSIONBRIDGE                                                                
 LARGEST INCREMENT OF ROTATION     -1.515E-04   AT NODE      10127   DOF  5
   INSTANCE: SUSPENSIONBRIDGE                                                                
 LARGEST CORRECTION TO ROTATION     5.736E-06   AT NODE      20127   DOF  5
   INSTANCE: SUSPENSIONBRIDGE                                                                
 ESTIMATE OF ROTATION CORRECTION    7.666E-09
 MOMENT    EQUILIB. ACCEPTED BASED ON SMALL RESIDUAL AND ESTIMATED CORRECTION
          TIME INCREMENT MAY NOW INCREASE TO    1.500E-06

 ITERATION SUMMARY FOR THE INCREMENT:   1 TOTAL ITERATIONS, OF WHICH
   0 ARE SEVERE DISCONTINUITY ITERATIONS AND  1 ARE EQUILIBRIUM ITERATIONS.

 TIME INCREMENT COMPLETED  1.000E-06,  FRACTION OF STEP COMPLETED  2.000E-06
 STEP TIME COMPLETED       2.000E-06,  TOTAL TIME COMPLETED         1.00    


  INCREMENT     3 STARTS. ATTEMPT NUMBER  1, TIME INCREMENT  1.500E-06

  NUMBER OF EQUATIONS =      2676     NUMBER OF FLOATING PT. OPERATIONS =  6.82E+05

  USING THE DIRECT SOLVER WITH   4 PROCESSORS

     CHECK POINT   START OF SOLVER    

     CHECK POINT  END OF SOLVER       

       ELAPSED USER TIME (SEC)      =  0.10000    
       ELAPSED SYSTEM TIME (SEC)    =   0.0000    
       ELAPSED TOTAL CPU TIME (SEC) =  0.10000    
       ELAPSED WALLCLOCK TIME (SEC) =          1
 

 ***WARNING: SOLVER PROBLEM. NUMERICAL SINGULARITY WHEN PROCESSING NODE 
             SUSPENSIONBRIDGE.20055 D.O.F. 2 RATIO = 5.72650E+09.

               CONVERGENCE CHECKS FOR EQUILIBRIUM ITERATION     1


 AVERAGE FORCE                      8.928E+03   TIME AVG. FORCE       1.047E+04
 LARGEST RESIDUAL FORCE             5.833E-02   AT NODE      10076   DOF  1
   INSTANCE: SUSPENSIONBRIDGE                                                                
 LARGEST INCREMENT OF DISP.        -2.415E-03   AT NODE      20104   DOF  3
   INSTANCE: SUSPENSIONBRIDGE                                                                
 LARGEST CORRECTION TO DISP.        1.925E-04   AT NODE      10104   DOF  3
   INSTANCE: SUSPENSIONBRIDGE                                                                
 ESTIMATE OF DISP.    CORRECTION   -1.142E-06
 FORCE     EQUILIB. ACCEPTED BASED ON SMALL RESIDUAL AND ESTIMATED CORRECTION

 AVERAGE MOMENT                     1.820E+04   TIME AVG. MOMENT      1.820E+04
 LARGEST RESIDUAL MOMENT            5.011E-03   AT NODE     201004   DOF  5
   INSTANCE: SUSPENSIONBRIDGE                                                                
 LARGEST INCREMENT OF ROTATION     -2.105E-04   AT NODE      20127   DOF  5
   INSTANCE: SUSPENSIONBRIDGE                                                                
 LARGEST CORRECTION TO ROTATION     1.683E-05   AT NODE      10127   DOF  5
   INSTANCE: SUSPENSIONBRIDGE                                                                
 ESTIMATE OF ROTATION CORRECTION   -1.597E-07
 MOMENT    EQUILIB. ACCEPTED BASED ON SMALL RESIDUAL AND ESTIMATED CORRECTION
          TIME INCREMENT MAY NOW INCREASE TO    2.250E-06

 ITERATION SUMMARY FOR THE INCREMENT:   1 TOTAL ITERATIONS, OF WHICH
   0 ARE SEVERE DISCONTINUITY ITERATIONS AND  1 ARE EQUILIBRIUM ITERATIONS.

 TIME INCREMENT COMPLETED  1.500E-06,  FRACTION OF STEP COMPLETED  3.500E-06
 STEP TIME COMPLETED       3.500E-06,  TOTAL TIME COMPLETED         1.00    


  INCREMENT     4 STARTS. ATTEMPT NUMBER  1, TIME INCREMENT  2.250E-06

  NUMBER OF EQUATIONS =      2676     NUMBER OF FLOATING PT. OPERATIONS =  6.82E+05

  USING THE DIRECT SOLVER WITH   4 PROCESSORS

     CHECK POINT   START OF SOLVER    

     CHECK POINT  END OF SOLVER       

       ELAPSED USER TIME (SEC)      =  0.10000    
       ELAPSED SYSTEM TIME (SEC)    =   0.0000    
       ELAPSED TOTAL CPU TIME (SEC) =  0.10000    
       ELAPSED WALLCLOCK TIME (SEC) =          0
 

 ***WARNING: SOLVER PROBLEM. NUMERICAL SINGULARITY WHEN PROCESSING NODE 
             SUSPENSIONBRIDGE.20055 D.O.F. 2 RATIO = 5.72490E+09.

               CONVERGENCE CHECKS FOR EQUILIBRIUM ITERATION     1


 AVERAGE FORCE                      6.659E+03   TIME AVG. FORCE       9.515E+03
 LARGEST RESIDUAL FORCE             0.251       AT NODE      20076   DOF  1
   INSTANCE: SUSPENSIONBRIDGE                                                                
 LARGEST INCREMENT OF DISP.        -3.111E-03   AT NODE      10104   DOF  3
   INSTANCE: SUSPENSIONBRIDGE                                                                
 LARGEST CORRECTION TO DISP.        5.112E-04   AT NODE      20104   DOF  3
   INSTANCE: SUSPENSIONBRIDGE                                                                
 ESTIMATE OF DISP.    CORRECTION   -6.643E-06
 FORCE     EQUILIB. ACCEPTED BASED ON SMALL RESIDUAL AND ESTIMATED CORRECTION

 AVERAGE MOMENT                     1.821E+04   TIME AVG. MOMENT      1.820E+04
 LARGEST RESIDUAL MOMENT           -1.260E-02   AT NODE      20075   DOF  5
   INSTANCE: SUSPENSIONBRIDGE                                                                
 LARGEST INCREMENT OF ROTATION     -2.710E-04   AT NODE      10127   DOF  5
   INSTANCE: SUSPENSIONBRIDGE                                                                
 LARGEST CORRECTION TO ROTATION     4.473E-05   AT NODE      20127   DOF  5
   INSTANCE: SUSPENSIONBRIDGE                                                                
 ESTIMATE OF ROTATION CORRECTION    5.453E-07
 MOMENT    EQUILIB. ACCEPTED BASED ON SMALL RESIDUAL AND ESTIMATED CORRECTION
          TIME INCREMENT MAY NOW INCREASE TO    3.375E-06

 ITERATION SUMMARY FOR THE INCREMENT:   1 TOTAL ITERATIONS, OF WHICH
   0 ARE SEVERE DISCONTINUITY ITERATIONS AND  1 ARE EQUILIBRIUM ITERATIONS.

 TIME INCREMENT COMPLETED  2.250E-06,  FRACTION OF STEP COMPLETED  5.750E-06
 STEP TIME COMPLETED       5.750E-06,  TOTAL TIME COMPLETED         1.00    


  INCREMENT     5 STARTS. ATTEMPT NUMBER  1, TIME INCREMENT  3.375E-06

  NUMBER OF EQUATIONS =      2676     NUMBER OF FLOATING PT. OPERATIONS =  6.82E+05

  USING THE DIRECT SOLVER WITH   4 PROCESSORS

     CHECK POINT   START OF SOLVER    

     CHECK POINT  END OF SOLVER       

       ELAPSED USER TIME (SEC)      =  0.10000    
       ELAPSED SYSTEM TIME (SEC)    =   0.0000    
       ELAPSED TOTAL CPU TIME (SEC) =  0.10000    
       ELAPSED WALLCLOCK TIME (SEC) =          0
 

 ***WARNING: SOLVER PROBLEM. NUMERICAL SINGULARITY WHEN PROCESSING NODE 
             SUSPENSIONBRIDGE.20055 D.O.F. 2 RATIO = 5.72165E+09.

               CONVERGENCE CHECKS FOR EQUILIBRIUM ITERATION     1


 AVERAGE FORCE                      6.613E+03   TIME AVG. FORCE       8.935E+03
 LARGEST RESIDUAL FORCE             0.728       AT NODE      10076   DOF  1
   INSTANCE: SUSPENSIONBRIDGE                                                                
 LARGEST INCREMENT OF DISP.        -3.711E-03   AT NODE      10104   DOF  3
   INSTANCE: SUSPENSIONBRIDGE                                                                
 LARGEST CORRECTION TO DISP.        9.548E-04   AT NODE      10104   DOF  3
   INSTANCE: SUSPENSIONBRIDGE                                                                
 ESTIMATE OF DISP.    CORRECTION   -2.078E-05
 FORCE     EQUILIB. ACCEPTED BASED ON SMALL RESIDUAL AND ESTIMATED CORRECTION

 AVERAGE MOMENT                     1.822E+04   TIME AVG. MOMENT      1.820E+04
 LARGEST RESIDUAL MOMENT           -4.137E-02   AT NODE      20075   DOF  5
   INSTANCE: SUSPENSIONBRIDGE                                                                
 LARGEST INCREMENT OF ROTATION     -3.233E-04   AT NODE      20127   DOF  5
   INSTANCE: SUSPENSIONBRIDGE                                                                
 LARGEST CORRECTION TO ROTATION     8.324E-05   AT NODE      10127   DOF  5
   INSTANCE: SUSPENSIONBRIDGE                                                                
 ESTIMATE OF ROTATION CORRECTION    1.938E-06
 MOMENT    EQUILIB. ACCEPTED BASED ON SMALL RESIDUAL AND ESTIMATED CORRECTION
          TIME INCREMENT MAY NOW INCREASE TO    5.062E-06

 ITERATION SUMMARY FOR THE INCREMENT:   1 TOTAL ITERATIONS, OF WHICH
   0 ARE SEVERE DISCONTINUITY ITERATIONS AND  1 ARE EQUILIBRIUM ITERATIONS.

 TIME INCREMENT COMPLETED  3.375E-06,  FRACTION OF STEP COMPLETED  9.125E-06
 STEP TIME COMPLETED       9.125E-06,  TOTAL TIME COMPLETED         1.00    


  INCREMENT     6 STARTS. ATTEMPT NUMBER  1, TIME INCREMENT  5.062E-06

  NUMBER OF EQUATIONS =      2676     NUMBER OF FLOATING PT. OPERATIONS =  6.82E+05

  USING THE DIRECT SOLVER WITH   4 PROCESSORS

     CHECK POINT   START OF SOLVER    

     CHECK POINT  END OF SOLVER       

       ELAPSED USER TIME (SEC)      =  0.20000    
       ELAPSED SYSTEM TIME (SEC)    =   0.0000    
       ELAPSED TOTAL CPU TIME (SEC) =  0.20000    
       ELAPSED WALLCLOCK TIME (SEC) =          0
 

 ***WARNING: SOLVER PROBLEM. NUMERICAL SINGULARITY WHEN PROCESSING NODE 
             SUSPENSIONBRIDGE.20055 D.O.F. 2 RATIO = 5.71526E+09.

               CONVERGENCE CHECKS FOR EQUILIBRIUM ITERATION     1


 AVERAGE FORCE                      6.284E+03   TIME AVG. FORCE       8.493E+03
 LARGEST RESIDUAL FORCE              1.42       AT NODE      10076   DOF  1
   INSTANCE: SUSPENSIONBRIDGE                                                                
 LARGEST INCREMENT OF DISP.        -4.201E-03   AT NODE      10103   DOF  3
   INSTANCE: SUSPENSIONBRIDGE                                                                
 LARGEST CORRECTION TO DISP.        1.368E-03   AT NODE      10104   DOF  3
   INSTANCE: SUSPENSIONBRIDGE                                                                
 ESTIMATE OF DISP.    CORRECTION   -3.806E-05
 FORCE     EQUILIB. ACCEPTED BASED ON SMALL RESIDUAL AND ESTIMATED CORRECTION

 AVERAGE MOMENT                     1.824E+04   TIME AVG. MOMENT      1.821E+04
 LARGEST RESIDUAL MOMENT           -8.549E-02   AT NODE      20075   DOF  5
   INSTANCE: SUSPENSIONBRIDGE                                                                
 LARGEST INCREMENT OF ROTATION      3.663E-04   AT NODE      10001   DOF  5
   INSTANCE: SUSPENSIONBRIDGE                                                                
 LARGEST CORRECTION TO ROTATION     1.186E-04   AT NODE      20127   DOF  5
   INSTANCE: SUSPENSIONBRIDGE                                                                
          ROTATION CORRECTION TOO LARGE COMPARED TO ROTATION INCREMENT

  NUMBER OF EQUATIONS =      2676     NUMBER OF FLOATING PT. OPERATIONS =  6.82E+05

  USING THE DIRECT SOLVER WITH   4 PROCESSORS

     CHECK POINT   START OF SOLVER    

     CHECK POINT  END OF SOLVER       

       ELAPSED USER TIME (SEC)      =  0.10000    
       ELAPSED SYSTEM TIME (SEC)    =   0.0000    
       ELAPSED TOTAL CPU TIME (SEC) =  0.10000    
       ELAPSED WALLCLOCK TIME (SEC) =          0
 

 ***WARNING: SOLVER PROBLEM. NUMERICAL SINGULARITY WHEN PROCESSING NODE 
             SUSPENSIONBRIDGE.20055 D.O.F. 2 RATIO = 5.70523E+09.

               CONVERGENCE CHECKS FOR EQUILIBRIUM ITERATION     2


 AVERAGE FORCE                      6.667E+03   TIME AVG. FORCE       8.557E+03
 LARGEST RESIDUAL FORCE             1.924E-02   AT NODE      20075   DOF  1
   INSTANCE: SUSPENSIONBRIDGE                                                                
 LARGEST INCREMENT OF DISP.        -4.265E-03   AT NODE      20103   DOF  3
   INSTANCE: SUSPENSIONBRIDGE                                                                
 LARGEST CORRECTION TO DISP.       -6.404E-05   AT NODE      20104   DOF  3
   INSTANCE: SUSPENSIONBRIDGE                                                                
 ESTIMATE OF DISP.    CORRECTION   -8.671E-07
 FORCE     EQUILIB. ACCEPTED BASED ON SMALL RESIDUAL AND ESTIMATED CORRECTION

 AVERAGE MOMENT                     1.824E+04   TIME AVG. MOMENT      1.821E+04
 LARGEST RESIDUAL MOMENT           -2.636E-03   AT NODE     101004   DOF  5
   INSTANCE: SUSPENSIONBRIDGE                                                                
 LARGEST INCREMENT OF ROTATION     -3.711E-04   AT NODE      10127   DOF  5
   INSTANCE: SUSPENSIONBRIDGE                                                                
 LARGEST CORRECTION TO ROTATION    -4.822E-06   AT NODE      10127   DOF  5
   INSTANCE: SUSPENSIONBRIDGE                                                                
 ESTIMATE OF ROTATION CORRECTION   -1.487E-07
 MOMENT    EQUILIB. ACCEPTED BASED ON SMALL RESIDUAL AND ESTIMATED CORRECTION
          TIME INCREMENT MAY NOW INCREASE TO    7.594E-06

 ITERATION SUMMARY FOR THE INCREMENT:   2 TOTAL ITERATIONS, OF WHICH
   0 ARE SEVERE DISCONTINUITY ITERATIONS AND  2 ARE EQUILIBRIUM ITERATIONS.

 TIME INCREMENT COMPLETED  5.062E-06,  FRACTION OF STEP COMPLETED  1.419E-05
 STEP TIME COMPLETED       1.419E-05,  TOTAL TIME COMPLETED         1.00    


  INCREMENT     7 STARTS. ATTEMPT NUMBER  1, TIME INCREMENT  7.594E-06

  NUMBER OF EQUATIONS =      2676     NUMBER OF FLOATING PT. OPERATIONS =  6.82E+05

  USING THE DIRECT SOLVER WITH   4 PROCESSORS

     CHECK POINT   START OF SOLVER    

     CHECK POINT  END OF SOLVER       

       ELAPSED USER TIME (SEC)      =  0.10000    
       ELAPSED SYSTEM TIME (SEC)    =   0.0000    
       ELAPSED TOTAL CPU TIME (SEC) =  0.10000    
       ELAPSED WALLCLOCK TIME (SEC) =          0
 

 ***WARNING: SOLVER PROBLEM. NUMERICAL SINGULARITY WHEN PROCESSING NODE 
             SUSPENSIONBRIDGE.20055 D.O.F. 2 RATIO = 5.71347E+09.

               CONVERGENCE CHECKS FOR EQUILIBRIUM ITERATION     1


 AVERAGE FORCE                      5.956E+03   TIME AVG. FORCE       8.185E+03
 LARGEST RESIDUAL FORCE             -2.82       AT NODE      10077   DOF  3
   INSTANCE: SUSPENSIONBRIDGE                                                                
 LARGEST INCREMENT OF DISP.        -4.492E-03   AT NODE      20103   DOF  3
   INSTANCE: SUSPENSIONBRIDGE                                                                
 LARGEST CORRECTION TO DISP.        1.911E-03   AT NODE      10104   DOF  3
   INSTANCE: SUSPENSIONBRIDGE                                                                
          DISP.    CORRECTION TOO LARGE COMPARED TO DISP.    INCREMENT

 AVERAGE MOMENT                     1.826E+04   TIME AVG. MOMENT      1.822E+04
 LARGEST RESIDUAL MOMENT           -0.171       AT NODE      10075   DOF  5
   INSTANCE: SUSPENSIONBRIDGE                                                                
 LARGEST INCREMENT OF ROTATION      3.914E-04   AT NODE      20001   DOF  5
   INSTANCE: SUSPENSIONBRIDGE                                                                
 LARGEST CORRECTION TO ROTATION     1.653E-04   AT NODE      20127   DOF  5
   INSTANCE: SUSPENSIONBRIDGE                                                                
          ROTATION CORRECTION TOO LARGE COMPARED TO ROTATION INCREMENT

  NUMBER OF EQUATIONS =      2676     NUMBER OF FLOATING PT. OPERATIONS =  6.82E+05

  USING THE DIRECT SOLVER WITH   4 PROCESSORS

     CHECK POINT   START OF SOLVER    

     CHECK POINT  END OF SOLVER       

       ELAPSED USER TIME (SEC)      =  0.10000    
       ELAPSED SYSTEM TIME (SEC)    =   0.0000    
       ELAPSED TOTAL CPU TIME (SEC) =  0.10000    
       ELAPSED WALLCLOCK TIME (SEC) =          0
 

 ***WARNING: SOLVER PROBLEM. NUMERICAL SINGULARITY WHEN PROCESSING NODE 
             SUSPENSIONBRIDGE.20055 D.O.F. 2 RATIO = 5.68851E+09.

               CONVERGENCE CHECKS FOR EQUILIBRIUM ITERATION     2


 AVERAGE FORCE                      6.267E+03   TIME AVG. FORCE       8.230E+03
 LARGEST RESIDUAL FORCE             3.742E-02   AT NODE      10075   DOF  1
   INSTANCE: SUSPENSIONBRIDGE                                                                
 LARGEST INCREMENT OF DISP.        -4.614E-03   AT NODE      10103   DOF  3
   INSTANCE: SUSPENSIONBRIDGE                                                                
 LARGEST CORRECTION TO DISP.       -1.228E-04   AT NODE      10104   DOF  3
   INSTANCE: SUSPENSIONBRIDGE                                                                
 ESTIMATE OF DISP.    CORRECTION    1.627E-06
 FORCE     EQUILIB. ACCEPTED BASED ON SMALL RESIDUAL AND ESTIMATED CORRECTION

 AVERAGE MOMENT                     1.826E+04   TIME AVG. MOMENT      1.822E+04
 LARGEST RESIDUAL MOMENT            2.629E-03   AT NODE     400004   DOF  5
   INSTANCE: SUSPENSIONBRIDGE                                                                
 LARGEST INCREMENT OF ROTATION      4.019E-04   AT NODE      10001   DOF  5
   INSTANCE: SUSPENSIONBRIDGE                                                                
 LARGEST CORRECTION TO ROTATION    -1.054E-05   AT NODE      20127   DOF  5
   INSTANCE: SUSPENSIONBRIDGE                                                                
 ESTIMATE OF ROTATION CORRECTION    1.619E-07
 MOMENT    EQUILIB. ACCEPTED BASED ON SMALL RESIDUAL AND ESTIMATED CORRECTION
          TIME INCREMENT MAY NOW INCREASE TO    1.139E-05

 ITERATION SUMMARY FOR THE INCREMENT:   2 TOTAL ITERATIONS, OF WHICH
   0 ARE SEVERE DISCONTINUITY ITERATIONS AND  2 ARE EQUILIBRIUM ITERATIONS.

 TIME INCREMENT COMPLETED  7.594E-06,  FRACTION OF STEP COMPLETED  2.178E-05
 STEP TIME COMPLETED       2.178E-05,  TOTAL TIME COMPLETED         1.00    


  INCREMENT     8 STARTS. ATTEMPT NUMBER  1, TIME INCREMENT  1.139E-05

  NUMBER OF EQUATIONS =      2676     NUMBER OF FLOATING PT. OPERATIONS =  6.82E+05

  USING THE DIRECT SOLVER WITH   4 PROCESSORS

     CHECK POINT   START OF SOLVER    

     CHECK POINT  END OF SOLVER       

       ELAPSED USER TIME (SEC)      =   0.0000    
       ELAPSED SYSTEM TIME (SEC)    =   0.0000    
       ELAPSED TOTAL CPU TIME (SEC) =   0.0000    
       ELAPSED WALLCLOCK TIME (SEC) =          1
 

 ***WARNING: SOLVER PROBLEM. NUMERICAL SINGULARITY WHEN PROCESSING NODE 
             SUSPENSIONBRIDGE.20055 D.O.F. 2 RATIO = 5.70503E+09.

               CONVERGENCE CHECKS FOR EQUILIBRIUM ITERATION     1


 AVERAGE FORCE                      5.662E+03   TIME AVG. FORCE       7.909E+03
 LARGEST RESIDUAL FORCE             -3.47       AT NODE      10051   DOF  3
   INSTANCE: SUSPENSIONBRIDGE                                                                
 LARGEST INCREMENT OF DISP.        -4.891E-03   AT NODE      10103   DOF  3
   INSTANCE: SUSPENSIONBRIDGE                                                                
 LARGEST CORRECTION TO DISP.        2.032E-03   AT NODE      20104   DOF  3
   INSTANCE: SUSPENSIONBRIDGE                                                                
          DISP.    CORRECTION TOO LARGE COMPARED TO DISP.    INCREMENT

 AVERAGE MOMENT                     1.829E+04   TIME AVG. MOMENT      1.823E+04
 LARGEST RESIDUAL MOMENT           -0.212       AT NODE      20075   DOF  5
   INSTANCE: SUSPENSIONBRIDGE                                                                
 LARGEST INCREMENT OF ROTATION      4.285E-04   AT NODE      10001   DOF  5
   INSTANCE: SUSPENSIONBRIDGE                                                                
 LARGEST CORRECTION TO ROTATION     1.744E-04   AT NODE      10127   DOF  5
   INSTANCE: SUSPENSIONBRIDGE                                                                
          ROTATION CORRECTION TOO LARGE COMPARED TO ROTATION INCREMENT

  NUMBER OF EQUATIONS =      2676     NUMBER OF FLOATING PT. OPERATIONS =  6.82E+05

  USING THE DIRECT SOLVER WITH   4 PROCESSORS

     CHECK POINT   START OF SOLVER    

     CHECK POINT  END OF SOLVER       

       ELAPSED USER TIME (SEC)      =   0.0000    
       ELAPSED SYSTEM TIME (SEC)    =   0.0000    
       ELAPSED TOTAL CPU TIME (SEC) =   0.0000    
       ELAPSED WALLCLOCK TIME (SEC) =          0
 

 ***WARNING: SOLVER PROBLEM. NUMERICAL SINGULARITY WHEN PROCESSING NODE 
             SUSPENSIONBRIDGE.20055 D.O.F. 2 RATIO = 5.67217E+09.

               CONVERGENCE CHECKS FOR EQUILIBRIUM ITERATION     2


 AVERAGE FORCE                      6.276E+03   TIME AVG. FORCE       7.986E+03
 LARGEST RESIDUAL FORCE             4.357E-02   AT NODE      20075   DOF  1
   INSTANCE: SUSPENSIONBRIDGE                                                                
 LARGEST INCREMENT OF DISP.        -5.026E-03   AT NODE      20103   DOF  3
   INSTANCE: SUSPENSIONBRIDGE                                                                
 LARGEST CORRECTION TO DISP.       -1.350E-04   AT NODE      20104   DOF  3
   INSTANCE: SUSPENSIONBRIDGE                                                                
 ESTIMATE OF DISP.    CORRECTION    1.695E-06
 FORCE     EQUILIB. ACCEPTED BASED ON SMALL RESIDUAL AND ESTIMATED CORRECTION

 AVERAGE MOMENT                     1.830E+04   TIME AVG. MOMENT      1.823E+04
 LARGEST RESIDUAL MOMENT           -3.932E-03   AT NODE      20073   DOF  6
   INSTANCE: SUSPENSIONBRIDGE                                                                
 LARGEST INCREMENT OF ROTATION      4.399E-04   AT NODE      20001   DOF  5
   INSTANCE: SUSPENSIONBRIDGE                                                                
 LARGEST CORRECTION TO ROTATION    -1.141E-05   AT NODE      10127   DOF  5
   INSTANCE: SUSPENSIONBRIDGE                                                                
 ESTIMATE OF ROTATION CORRECTION   -2.118E-07
 MOMENT    EQUILIB. ACCEPTED BASED ON SMALL RESIDUAL AND ESTIMATED CORRECTION
          TIME INCREMENT MAY NOW INCREASE TO    1.709E-05

 ITERATION SUMMARY FOR THE INCREMENT:   2 TOTAL ITERATIONS, OF WHICH
   0 ARE SEVERE DISCONTINUITY ITERATIONS AND  2 ARE EQUILIBRIUM ITERATIONS.

 TIME INCREMENT COMPLETED  1.139E-05,  FRACTION OF STEP COMPLETED  3.317E-05
 STEP TIME COMPLETED       3.317E-05,  TOTAL TIME COMPLETED         1.00    


  INCREMENT     9 STARTS. ATTEMPT NUMBER  1, TIME INCREMENT  1.709E-05

  NUMBER OF EQUATIONS =      2676     NUMBER OF FLOATING PT. OPERATIONS =  6.82E+05

  USING THE DIRECT SOLVER WITH   4 PROCESSORS

     CHECK POINT   START OF SOLVER    

     CHECK POINT  END OF SOLVER       

       ELAPSED USER TIME (SEC)      =   0.0000    
       ELAPSED SYSTEM TIME (SEC)    =   0.0000    
       ELAPSED TOTAL CPU TIME (SEC) =   0.0000    
       ELAPSED WALLCLOCK TIME (SEC) =          0
 

 ***WARNING: SOLVER PROBLEM. NUMERICAL SINGULARITY WHEN PROCESSING NODE 
             SUSPENSIONBRIDGE.20055 D.O.F. 2 RATIO = 5.69249E+09.

               CONVERGENCE CHECKS FOR EQUILIBRIUM ITERATION     1


 AVERAGE FORCE                      4.608E+03   TIME AVG. FORCE       7.610E+03
 LARGEST RESIDUAL FORCE             -4.52       AT NODE      20051   DOF  3
   INSTANCE: SUSPENSIONBRIDGE                                                                
 LARGEST INCREMENT OF DISP.        -5.334E-03   AT NODE      20102   DOF  3
   INSTANCE: SUSPENSIONBRIDGE                                                                
 LARGEST CORRECTION TO DISP.        2.205E-03   AT NODE      10103   DOF  3
   INSTANCE: SUSPENSIONBRIDGE                                                                
          DISP.    CORRECTION TOO LARGE COMPARED TO DISP.    INCREMENT

 AVERAGE MOMENT                     1.809E+04   TIME AVG. MOMENT      1.821E+04
 LARGEST RESIDUAL MOMENT           -0.279       AT NODE      10075   DOF  5
   INSTANCE: SUSPENSIONBRIDGE                                                                
 LARGEST INCREMENT OF ROTATION      4.714E-04   AT NODE      20001   DOF  5
   INSTANCE: SUSPENSIONBRIDGE                                                                
 LARGEST CORRECTION TO ROTATION     1.884E-04   AT NODE      20127   DOF  5
   INSTANCE: SUSPENSIONBRIDGE                                                                
          ROTATION CORRECTION TOO LARGE COMPARED TO ROTATION INCREMENT

  NUMBER OF EQUATIONS =      2676     NUMBER OF FLOATING PT. OPERATIONS =  6.82E+05

  USING THE DIRECT SOLVER WITH   4 PROCESSORS

     CHECK POINT   START OF SOLVER    

     CHECK POINT  END OF SOLVER       

       ELAPSED USER TIME (SEC)      =  0.20000    
       ELAPSED SYSTEM TIME (SEC)    =   0.0000    
       ELAPSED TOTAL CPU TIME (SEC) =  0.20000    
       ELAPSED WALLCLOCK TIME (SEC) =          0
 

 ***WARNING: SOLVER PROBLEM. NUMERICAL SINGULARITY WHEN PROCESSING NODE 
             SUSPENSIONBRIDGE.20055 D.O.F. 2 RATIO = 5.64742E+09.

               CONVERGENCE CHECKS FOR EQUILIBRIUM ITERATION     2


 AVERAGE FORCE                      5.019E+03   TIME AVG. FORCE       7.656E+03
 LARGEST RESIDUAL FORCE             5.025E-02   AT NODE      10075   DOF  1
   INSTANCE: SUSPENSIONBRIDGE                                                                
 LARGEST INCREMENT OF DISP.        -5.481E-03   AT NODE      20103   DOF  3
   INSTANCE: SUSPENSIONBRIDGE                                                                
 LARGEST CORRECTION TO DISP.       -1.476E-04   AT NODE      10104   DOF  3
   INSTANCE: SUSPENSIONBRIDGE                                                                
 ESTIMATE OF DISP.    CORRECTION    1.641E-06
 FORCE     EQUILIB. ACCEPTED BASED ON SMALL RESIDUAL AND ESTIMATED CORRECTION

 AVERAGE MOMENT                     1.809E+04   TIME AVG. MOMENT      1.821E+04
 LARGEST RESIDUAL MOMENT            5.714E-03   AT NODE      10071   DOF  6
   INSTANCE: SUSPENSIONBRIDGE                                                                
 LARGEST INCREMENT OF ROTATION      4.837E-04   AT NODE      10001   DOF  5
   INSTANCE: SUSPENSIONBRIDGE                                                                
 LARGEST CORRECTION TO ROTATION    -1.223E-05   AT NODE      20127   DOF  5
   INSTANCE: SUSPENSIONBRIDGE                                                                
 ESTIMATE OF ROTATION CORRECTION    2.507E-07
 MOMENT    EQUILIB. ACCEPTED BASED ON SMALL RESIDUAL AND ESTIMATED CORRECTION
          TIME INCREMENT MAY NOW INCREASE TO    2.563E-05

 ITERATION SUMMARY FOR THE INCREMENT:   2 TOTAL ITERATIONS, OF WHICH
   0 ARE SEVERE DISCONTINUITY ITERATIONS AND  2 ARE EQUILIBRIUM ITERATIONS.

 TIME INCREMENT COMPLETED  1.709E-05,  FRACTION OF STEP COMPLETED  5.026E-05
 STEP TIME COMPLETED       5.026E-05,  TOTAL TIME COMPLETED         1.00    


  INCREMENT    10 STARTS. ATTEMPT NUMBER  1, TIME INCREMENT  2.563E-05

  NUMBER OF EQUATIONS =      2676     NUMBER OF FLOATING PT. OPERATIONS =  6.82E+05

  USING THE DIRECT SOLVER WITH   4 PROCESSORS

     CHECK POINT   START OF SOLVER    

     CHECK POINT  END OF SOLVER       

       ELAPSED USER TIME (SEC)      =  0.20000    
       ELAPSED SYSTEM TIME (SEC)    =  0.10000    
       ELAPSED TOTAL CPU TIME (SEC) =  0.30000    
       ELAPSED WALLCLOCK TIME (SEC) =          0
 

 ***WARNING: SOLVER PROBLEM. NUMERICAL SINGULARITY WHEN PROCESSING NODE 
             SUSPENSIONBRIDGE.20055 D.O.F. 2 RATIO = 5.67394E+09.

               CONVERGENCE CHECKS FOR EQUILIBRIUM ITERATION     1


 AVERAGE FORCE                      4.511E+03   TIME AVG. FORCE       7.342E+03
 LARGEST RESIDUAL FORCE             -5.90       AT NODE      20051   DOF  3
   INSTANCE: SUSPENSIONBRIDGE                                                                
 LARGEST INCREMENT OF DISP.        -5.858E-03   AT NODE      10102   DOF  3
   INSTANCE: SUSPENSIONBRIDGE                                                                
 LARGEST CORRECTION TO DISP.        2.369E-03   AT NODE      20103   DOF  3
   INSTANCE: SUSPENSIONBRIDGE                                                                
          DISP.    CORRECTION TOO LARGE COMPARED TO DISP.    INCREMENT

 AVERAGE MOMENT                     1.487E+04   TIME AVG. MOMENT      1.788E+04
 LARGEST RESIDUAL MOMENT           -0.369       AT NODE      20075   DOF  5
   INSTANCE: SUSPENSIONBRIDGE                                                                
 LARGEST INCREMENT OF ROTATION      5.241E-04   AT NODE      10001   DOF  5
   INSTANCE: SUSPENSIONBRIDGE                                                                
 LARGEST CORRECTION TO ROTATION     2.014E-04   AT NODE      10127   DOF  5
   INSTANCE: SUSPENSIONBRIDGE                                                                
          ROTATION CORRECTION TOO LARGE COMPARED TO ROTATION INCREMENT

  NUMBER OF EQUATIONS =      2676     NUMBER OF FLOATING PT. OPERATIONS =  6.82E+05

  USING THE DIRECT SOLVER WITH   4 PROCESSORS

     CHECK POINT   START OF SOLVER    

     CHECK POINT  END OF SOLVER       

       ELAPSED USER TIME (SEC)      =  0.10000    
       ELAPSED SYSTEM TIME (SEC)    =   0.0000    
       ELAPSED TOTAL CPU TIME (SEC) =  0.10000    
       ELAPSED WALLCLOCK TIME (SEC) =          0
 

 ***WARNING: SOLVER PROBLEM. NUMERICAL SINGULARITY WHEN PROCESSING NODE 
             SUSPENSIONBRIDGE.20055 D.O.F. 2 RATIO = 5.61195E+09.

               CONVERGENCE CHECKS FOR EQUILIBRIUM ITERATION     2


 AVERAGE FORCE                      4.976E+03   TIME AVG. FORCE       7.388E+03
 LARGEST RESIDUAL FORCE             6.066E-02   AT NODE      20075   DOF  1
   INSTANCE: SUSPENSIONBRIDGE                                                                
 LARGEST INCREMENT OF DISP.        -6.016E-03   AT NODE      10102   DOF  3
   INSTANCE: SUSPENSIONBRIDGE                                                                
 LARGEST CORRECTION TO DISP.       -1.595E-04   AT NODE      20103   DOF  3
   INSTANCE: SUSPENSIONBRIDGE                                                                
 ESTIMATE OF DISP.    CORRECTION    1.640E-06
 FORCE     EQUILIB. ACCEPTED BASED ON SMALL RESIDUAL AND ESTIMATED CORRECTION

 AVERAGE MOMENT                     1.487E+04   TIME AVG. MOMENT      1.788E+04
 LARGEST RESIDUAL MOMENT           -5.060E-03   AT NODE      20057   DOF  6
   INSTANCE: SUSPENSIONBRIDGE                                                                
 LARGEST INCREMENT OF ROTATION      5.370E-04   AT NODE      20001   DOF  5
   INSTANCE: SUSPENSIONBRIDGE                                                                
 LARGEST CORRECTION TO ROTATION    -1.289E-05   AT NODE      10127   DOF  5
   INSTANCE: SUSPENSIONBRIDGE                                                                
 ESTIMATE OF ROTATION CORRECTION   -1.769E-07
 MOMENT    EQUILIB. ACCEPTED BASED ON SMALL RESIDUAL AND ESTIMATED CORRECTION
          TIME INCREMENT MAY NOW INCREASE TO    3.844E-05

 ITERATION SUMMARY FOR THE INCREMENT:   2 TOTAL ITERATIONS, OF WHICH
   0 ARE SEVERE DISCONTINUITY ITERATIONS AND  2 ARE EQUILIBRIUM ITERATIONS.

 TIME INCREMENT COMPLETED  2.563E-05,  FRACTION OF STEP COMPLETED  7.589E-05
 STEP TIME COMPLETED       7.589E-05,  TOTAL TIME COMPLETED         1.00    


  INCREMENT    11 STARTS. ATTEMPT NUMBER  1, TIME INCREMENT  3.844E-05

  NUMBER OF EQUATIONS =      2676     NUMBER OF FLOATING PT. OPERATIONS =  6.82E+05

  USING THE DIRECT SOLVER WITH   4 PROCESSORS

     CHECK POINT   START OF SOLVER    

     CHECK POINT  END OF SOLVER       

       ELAPSED USER TIME (SEC)      =  0.10000    
       ELAPSED SYSTEM TIME (SEC)    =   0.0000    
       ELAPSED TOTAL CPU TIME (SEC) =  0.10000    
       ELAPSED WALLCLOCK TIME (SEC) =          0
 

 ***WARNING: SOLVER PROBLEM. NUMERICAL SINGULARITY WHEN PROCESSING NODE 
             SUSPENSIONBRIDGE.20055 D.O.F. 2 RATIO = 5.64665E+09.

               CONVERGENCE CHECKS FOR EQUILIBRIUM ITERATION     1


 AVERAGE FORCE                      4.409E+03   TIME AVG. FORCE       7.117E+03
 LARGEST RESIDUAL FORCE             -7.89       AT NODE      10051   DOF  3
   INSTANCE: SUSPENSIONBRIDGE                                                                
 LARGEST INCREMENT OF DISP.        -6.471E-03   AT NODE      10102   DOF  3
   INSTANCE: SUSPENSIONBRIDGE                                                                
 LARGEST CORRECTION TO DISP.        2.556E-03   AT NODE      20103   DOF  3
   INSTANCE: SUSPENSIONBRIDGE                                                                
          DISP.    CORRECTION TOO LARGE COMPARED TO DISP.    INCREMENT

 AVERAGE MOMENT                     1.328E+04   TIME AVG. MOMENT      1.746E+04
 LARGEST RESIDUAL MOMENT           -0.499       AT NODE      20075   DOF  5
   INSTANCE: SUSPENSIONBRIDGE                                                                
 LARGEST INCREMENT OF ROTATION      5.880E-04   AT NODE      10001   DOF  5
   INSTANCE: SUSPENSIONBRIDGE                                                                
 LARGEST CORRECTION TO ROTATION     2.175E-04   AT NODE      10127   DOF  5
   INSTANCE: SUSPENSIONBRIDGE                                                                
          ROTATION CORRECTION TOO LARGE COMPARED TO ROTATION INCREMENT

  NUMBER OF EQUATIONS =      2676     NUMBER OF FLOATING PT. OPERATIONS =  6.82E+05

  USING THE DIRECT SOLVER WITH   4 PROCESSORS

     CHECK POINT   START OF SOLVER    

     CHECK POINT  END OF SOLVER       

       ELAPSED USER TIME (SEC)      =  0.10000    
       ELAPSED SYSTEM TIME (SEC)    =   0.0000    
       ELAPSED TOTAL CPU TIME (SEC) =  0.10000    
       ELAPSED WALLCLOCK TIME (SEC) =          1
 

 ***WARNING: SOLVER PROBLEM. NUMERICAL SINGULARITY WHEN PROCESSING NODE 
             SUSPENSIONBRIDGE.20055 D.O.F. 2 RATIO = 5.56043E+09.

               CONVERGENCE CHECKS FOR EQUILIBRIUM ITERATION     2


 AVERAGE FORCE                      4.938E+03   TIME AVG. FORCE       7.165E+03
 LARGEST RESIDUAL FORCE             7.490E-02   AT NODE      20075   DOF  1
   INSTANCE: SUSPENSIONBRIDGE                                                                
 LARGEST INCREMENT OF DISP.        -6.644E-03   AT NODE      10102   DOF  3
   INSTANCE: SUSPENSIONBRIDGE                                                                
 LARGEST CORRECTION TO DISP.       -1.729E-04   AT NODE      10103   DOF  3
   INSTANCE: SUSPENSIONBRIDGE                                                                
 ESTIMATE OF DISP.    CORRECTION    1.642E-06
 FORCE     EQUILIB. ACCEPTED BASED ON SMALL RESIDUAL AND ESTIMATED CORRECTION

 AVERAGE MOMENT                     1.322E+04   TIME AVG. MOMENT      1.745E+04
 LARGEST RESIDUAL MOMENT           -1.118E-02   AT NODE      20059   DOF  6
   INSTANCE: SUSPENSIONBRIDGE                                                                
 LARGEST INCREMENT OF ROTATION      6.016E-04   AT NODE      10001   DOF  5
   INSTANCE: SUSPENSIONBRIDGE                                                                
 LARGEST CORRECTION TO ROTATION    -1.362E-05   AT NODE      10127   DOF  5
   INSTANCE: SUSPENSIONBRIDGE                                                                
 ESTIMATE OF ROTATION CORRECTION   -3.050E-07
 MOMENT    EQUILIB. ACCEPTED BASED ON SMALL RESIDUAL AND ESTIMATED CORRECTION
          TIME INCREMENT MAY NOW INCREASE TO    5.767E-05

 ITERATION SUMMARY FOR THE INCREMENT:   2 TOTAL ITERATIONS, OF WHICH
   0 ARE SEVERE DISCONTINUITY ITERATIONS AND  2 ARE EQUILIBRIUM ITERATIONS.

 TIME INCREMENT COMPLETED  3.844E-05,  FRACTION OF STEP COMPLETED  1.143E-04
 STEP TIME COMPLETED       1.143E-04,  TOTAL TIME COMPLETED         1.00    


  INCREMENT    12 STARTS. ATTEMPT NUMBER  1, TIME INCREMENT  5.767E-05

  NUMBER OF EQUATIONS =      2676     NUMBER OF FLOATING PT. OPERATIONS =  6.82E+05

  USING THE DIRECT SOLVER WITH   4 PROCESSORS

     CHECK POINT   START OF SOLVER    

     CHECK POINT  END OF SOLVER       

       ELAPSED USER TIME (SEC)      =  0.10000    
       ELAPSED SYSTEM TIME (SEC)    =   0.0000    
       ELAPSED TOTAL CPU TIME (SEC) =  0.10000    
       ELAPSED WALLCLOCK TIME (SEC) =          0
 

 ***WARNING: SOLVER PROBLEM. NUMERICAL SINGULARITY WHEN PROCESSING NODE 
             SUSPENSIONBRIDGE.20055 D.O.F. 2 RATIO = 5.60660E+09.

               CONVERGENCE CHECKS FOR EQUILIBRIUM ITERATION     1


 AVERAGE FORCE                      4.365E+03   TIME AVG. FORCE       6.932E+03
 LARGEST RESIDUAL FORCE             -10.7       AT NODE      10051   DOF  3
   INSTANCE: SUSPENSIONBRIDGE                                                                
 LARGEST INCREMENT OF DISP.        -7.188E-03   AT NODE      10102   DOF  3
   INSTANCE: SUSPENSIONBRIDGE                                                                
 LARGEST CORRECTION TO DISP.        2.777E-03   AT NODE      20102   DOF  3
   INSTANCE: SUSPENSIONBRIDGE                                                                
          DISP.    CORRECTION TOO LARGE COMPARED TO DISP.    INCREMENT

 AVERAGE MOMENT                     1.239E+04   TIME AVG. MOMENT      1.703E+04
 LARGEST RESIDUAL MOMENT           -0.938       AT NODE      10057   DOF  6
   INSTANCE: SUSPENSIONBRIDGE                                                                
 LARGEST INCREMENT OF ROTATION      6.644E-04   AT NODE      10001   DOF  5
   INSTANCE: SUSPENSIONBRIDGE                                                                
 LARGEST CORRECTION TO ROTATION     2.380E-04   AT NODE      10127   DOF  5
   INSTANCE: SUSPENSIONBRIDGE                                                                
          ROTATION CORRECTION TOO LARGE COMPARED TO ROTATION INCREMENT

  NUMBER OF EQUATIONS =      2676     NUMBER OF FLOATING PT. OPERATIONS =  6.82E+05

  USING THE DIRECT SOLVER WITH   4 PROCESSORS

     CHECK POINT   START OF SOLVER    

     CHECK POINT  END OF SOLVER       

       ELAPSED USER TIME (SEC)      =  0.10000    
       ELAPSED SYSTEM TIME (SEC)    =   0.0000    
       ELAPSED TOTAL CPU TIME (SEC) =  0.10000    
       ELAPSED WALLCLOCK TIME (SEC) =          0
 

 ***WARNING: SOLVER PROBLEM. NUMERICAL SINGULARITY WHEN PROCESSING NODE 
             SUSPENSIONBRIDGE.20055 D.O.F. 2 RATIO = 5.48648E+09.

               CONVERGENCE CHECKS FOR EQUILIBRIUM ITERATION     2


 AVERAGE FORCE                      4.941E+03   TIME AVG. FORCE       6.980E+03
 LARGEST RESIDUAL FORCE             0.108       AT NODE      20075   DOF  1
   INSTANCE: SUSPENSIONBRIDGE                                                                
 LARGEST INCREMENT OF DISP.        -7.377E-03   AT NODE      10102   DOF  3
   INSTANCE: SUSPENSIONBRIDGE                                                                
 LARGEST CORRECTION TO DISP.       -1.884E-04   AT NODE      10102   DOF  3
   INSTANCE: SUSPENSIONBRIDGE                                                                
 ESTIMATE OF DISP.    CORRECTION    1.887E-06
 FORCE     EQUILIB. ACCEPTED BASED ON SMALL RESIDUAL AND ESTIMATED CORRECTION

 AVERAGE MOMENT                     1.237E+04   TIME AVG. MOMENT      1.703E+04
 LARGEST RESIDUAL MOMENT           -5.407E-02   AT NODE      10069   DOF  6
   INSTANCE: SUSPENSIONBRIDGE                                                                
 LARGEST INCREMENT OF ROTATION      6.790E-04   AT NODE      10001   DOF  5
   INSTANCE: SUSPENSIONBRIDGE                                                                
 LARGEST CORRECTION TO ROTATION    -1.459E-05   AT NODE      10127   DOF  5
   INSTANCE: SUSPENSIONBRIDGE                                                                
 ESTIMATE OF ROTATION CORRECTION   -8.408E-07
 MOMENT    EQUILIB. ACCEPTED BASED ON SMALL RESIDUAL AND ESTIMATED CORRECTION
          TIME INCREMENT MAY NOW INCREASE TO    8.650E-05

 ITERATION SUMMARY FOR THE INCREMENT:   2 TOTAL ITERATIONS, OF WHICH
   0 ARE SEVERE DISCONTINUITY ITERATIONS AND  2 ARE EQUILIBRIUM ITERATIONS.

 TIME INCREMENT COMPLETED  5.767E-05,  FRACTION OF STEP COMPLETED  1.720E-04
 STEP TIME COMPLETED       1.720E-04,  TOTAL TIME COMPLETED         1.00    


  INCREMENT    13 STARTS. ATTEMPT NUMBER  1, TIME INCREMENT  8.650E-05

  NUMBER OF EQUATIONS =      2676     NUMBER OF FLOATING PT. OPERATIONS =  6.82E+05

  USING THE DIRECT SOLVER WITH   4 PROCESSORS

     CHECK POINT   START OF SOLVER    

     CHECK POINT  END OF SOLVER       

       ELAPSED USER TIME (SEC)      =   0.0000    
       ELAPSED SYSTEM TIME (SEC)    =  0.10000    
       ELAPSED TOTAL CPU TIME (SEC) =  0.10000    
       ELAPSED WALLCLOCK TIME (SEC) =          0
 

 ***WARNING: SOLVER PROBLEM. NUMERICAL SINGULARITY WHEN PROCESSING NODE 
             SUSPENSIONBRIDGE.20055 D.O.F. 2 RATIO = 5.54819E+09.

               CONVERGENCE CHECKS FOR EQUILIBRIUM ITERATION     1


 AVERAGE FORCE                      4.321E+03   TIME AVG. FORCE       6.775E+03
 LARGEST RESIDUAL FORCE             -14.7       AT NODE      10051   DOF  3
   INSTANCE: SUSPENSIONBRIDGE                                                                
 LARGEST INCREMENT OF DISP.        -8.024E-03   AT NODE      20102   DOF  3
   INSTANCE: SUSPENSIONBRIDGE                                                                
 LARGEST CORRECTION TO DISP.        3.041E-03   AT NODE      10102   DOF  3
   INSTANCE: SUSPENSIONBRIDGE                                                                
          DISP.    CORRECTION TOO LARGE COMPARED TO DISP.    INCREMENT

 AVERAGE MOMENT                     1.144E+04   TIME AVG. MOMENT      1.660E+04
 LARGEST RESIDUAL MOMENT            -18.8       AT NODE      20057   DOF  6
   INSTANCE: SUSPENSIONBRIDGE                                                                
 LARGEST INCREMENT OF ROTATION      7.543E-04   AT NODE      10001   DOF  5
   INSTANCE: SUSPENSIONBRIDGE                                                                
 LARGEST CORRECTION TO ROTATION     2.642E-04   AT NODE      10127   DOF  5
   INSTANCE: SUSPENSIONBRIDGE                                                                
          ROTATION CORRECTION TOO LARGE COMPARED TO ROTATION INCREMENT

  NUMBER OF EQUATIONS =      2676     NUMBER OF FLOATING PT. OPERATIONS =  6.82E+05

  USING THE DIRECT SOLVER WITH   4 PROCESSORS

     CHECK POINT   START OF SOLVER    

     CHECK POINT  END OF SOLVER       

       ELAPSED USER TIME (SEC)      =  0.10000    
       ELAPSED SYSTEM TIME (SEC)    =   0.0000    
       ELAPSED TOTAL CPU TIME (SEC) =  0.10000    
       ELAPSED WALLCLOCK TIME (SEC) =          0
 

 ***WARNING: SOLVER PROBLEM. NUMERICAL SINGULARITY WHEN PROCESSING NODE 
             SUSPENSIONBRIDGE.20055 D.O.F. 2 RATIO = 5.38305E+09.

               CONVERGENCE CHECKS FOR EQUILIBRIUM ITERATION     2


 AVERAGE FORCE                      4.952E+03   TIME AVG. FORCE       6.824E+03
 LARGEST RESIDUAL FORCE             0.379       AT NODE      10057   DOF  1
   INSTANCE: SUSPENSIONBRIDGE                                                                
 LARGEST INCREMENT OF DISP.        -8.231E-03   AT NODE      10102   DOF  3
   INSTANCE: SUSPENSIONBRIDGE                                                                
 LARGEST CORRECTION TO DISP.       -2.066E-04   AT NODE      20101   DOF  3
   INSTANCE: SUSPENSIONBRIDGE                                                                
 ESTIMATE OF DISP.    CORRECTION    5.320E-06
 FORCE     EQUILIB. ACCEPTED BASED ON SMALL RESIDUAL AND ESTIMATED CORRECTION

 AVERAGE MOMENT                     1.190E+04   TIME AVG. MOMENT      1.664E+04
 LARGEST RESIDUAL MOMENT           -0.737       AT NODE      10057   DOF  6
   INSTANCE: SUSPENSIONBRIDGE                                                                
 LARGEST INCREMENT OF ROTATION      7.703E-04   AT NODE      10001   DOF  5
   INSTANCE: SUSPENSIONBRIDGE                                                                
 LARGEST CORRECTION TO ROTATION    -1.599E-05   AT NODE      10127   DOF  5
   INSTANCE: SUSPENSIONBRIDGE                                                                
 ESTIMATE OF ROTATION CORRECTION   -1.243E-06
 MOMENT    EQUILIB. ACCEPTED BASED ON SMALL RESIDUAL AND ESTIMATED CORRECTION
          TIME INCREMENT MAY NOW INCREASE TO    1.297E-04

 ITERATION SUMMARY FOR THE INCREMENT:   2 TOTAL ITERATIONS, OF WHICH
   0 ARE SEVERE DISCONTINUITY ITERATIONS AND  2 ARE EQUILIBRIUM ITERATIONS.

 TIME INCREMENT COMPLETED  8.650E-05,  FRACTION OF STEP COMPLETED  2.585E-04
 STEP TIME COMPLETED       2.585E-04,  TOTAL TIME COMPLETED         1.00    


  INCREMENT    14 STARTS. ATTEMPT NUMBER  1, TIME INCREMENT  1.297E-04

  NUMBER OF EQUATIONS =      2676     NUMBER OF FLOATING PT. OPERATIONS =  6.82E+05

  USING THE DIRECT SOLVER WITH   4 PROCESSORS

     CHECK POINT   START OF SOLVER    

     CHECK POINT  END OF SOLVER       

       ELAPSED USER TIME (SEC)      =  0.10000    
       ELAPSED SYSTEM TIME (SEC)    =   0.0000    
       ELAPSED TOTAL CPU TIME (SEC) =  0.10000    
       ELAPSED WALLCLOCK TIME (SEC) =          0
 

 ***WARNING: SOLVER PROBLEM. NUMERICAL SINGULARITY WHEN PROCESSING NODE 
             SUSPENSIONBRIDGE.20055 D.O.F. 2 RATIO = 5.46368E+09.

               CONVERGENCE CHECKS FOR EQUILIBRIUM ITERATION     1


 AVERAGE FORCE                      4.244E+03   TIME AVG. FORCE       6.640E+03
 LARGEST RESIDUAL FORCE              359.       AT NODE      10057   DOF  1
   INSTANCE: SUSPENSIONBRIDGE                                                                
 LARGEST INCREMENT OF DISP.        -8.995E-03   AT NODE      20102   DOF  3
   INSTANCE: SUSPENSIONBRIDGE                                                                
 LARGEST CORRECTION TO DISP.        3.351E-03   AT NODE      10102   DOF  3
   INSTANCE: SUSPENSIONBRIDGE                                                                
          FORCE     EQUILIBRIUM NOT ACHIEVED WITHIN TOLERANCE.

 AVERAGE MOMENT                     1.120E+04   TIME AVG. MOMENT      1.625E+04
 LARGEST RESIDUAL MOMENT            -715.       AT NODE      20057   DOF  6
   INSTANCE: SUSPENSIONBRIDGE                                                                
 LARGEST INCREMENT OF ROTATION      8.586E-04   AT NODE      10001   DOF  5
   INSTANCE: SUSPENSIONBRIDGE                                                                
 LARGEST CORRECTION TO ROTATION     2.970E-04   AT NODE      10127   DOF  5
   INSTANCE: SUSPENSIONBRIDGE                                                                
[...]
   0 ARE SEVERE DISCONTINUITY ITERATIONS AND  1 ARE EQUILIBRIUM ITERATIONS.

 TIME INCREMENT COMPLETED  0.225    ,  FRACTION OF STEP COMPLETED  0.575    
 STEP TIME COMPLETED       0.575    ,  TOTAL TIME COMPLETED         3.58    


  INCREMENT     5 STARTS. ATTEMPT NUMBER  1, TIME INCREMENT  0.338    

  NUMBER OF EQUATIONS =      3858     NUMBER OF FLOATING PT. OPERATIONS =  3.75E+06

  USING THE DIRECT SOLVER WITH   4 PROCESSORS

     CHECK POINT   START OF SOLVER    

     CHECK POINT  END OF SOLVER       

       ELAPSED USER TIME (SEC)      =  0.20000    
       ELAPSED SYSTEM TIME (SEC)    =  0.10000    
       ELAPSED TOTAL CPU TIME (SEC) =  0.30000    
       ELAPSED WALLCLOCK TIME (SEC) =          0

               CONVERGENCE CHECKS FOR EQUILIBRIUM ITERATION     1


 AVERAGE FORCE                      2.373E+05   TIME AVG. FORCE       2.298E+05
 LARGEST RESIDUAL FORCE            -2.743E-02   AT NODE     101004   DOF  1
   INSTANCE: SUSPENSIONBRIDGE                                                                
 LARGEST INCREMENT OF DISP.         9.018E-14   AT NODE      20109   DOF  1
   INSTANCE: SUSPENSIONBRIDGE                                                                
 LARGEST CORRECTION TO DISP.        2.316E-13   AT NODE      10054   DOF  2
   INSTANCE: SUSPENSIONBRIDGE                                                                
          FORCE     EQUILIB. ACCEPTED BASED ON SMALL RESIDUAL AND SMALL MAGNITUDE
           OF THE INCREMENT OF DISPLACEMENT

 AVERAGE MOMENT                     4.823E+04   TIME AVG. MOMENT      4.823E+04
 LARGEST RESIDUAL MOMENT           -4.112E-03   AT NODE     101004   DOF  5
   INSTANCE: SUSPENSIONBRIDGE                                                                
 LARGEST INCREMENT OF ROTATION      2.859E-12   AT NODE      10061   DOF  4
   INSTANCE: SUSPENSIONBRIDGE                                                                
 LARGEST CORRECTION TO ROTATION     2.930E-11   AT NODE      20069   DOF  4
   INSTANCE: SUSPENSIONBRIDGE                                                                
          THE MOMENT    EQUILIBRIUM EQUATIONS HAVE CONVERGED

 ITERATION SUMMARY FOR THE INCREMENT:   1 TOTAL ITERATIONS, OF WHICH
   0 ARE SEVERE DISCONTINUITY ITERATIONS AND  1 ARE EQUILIBRIUM ITERATIONS.

 TIME INCREMENT COMPLETED  0.338    ,  FRACTION OF STEP COMPLETED  0.913    
 STEP TIME COMPLETED       0.913    ,  TOTAL TIME COMPLETED         3.91    


  INCREMENT     6 STARTS. ATTEMPT NUMBER  1, TIME INCREMENT  8.750E-02

  NUMBER OF EQUATIONS =      3858     NUMBER OF FLOATING PT. OPERATIONS =  3.75E+06

  USING THE DIRECT SOLVER WITH   4 PROCESSORS

     CHECK POINT   START OF SOLVER    

     CHECK POINT  END OF SOLVER       

       ELAPSED USER TIME (SEC)      =  0.20000    
       ELAPSED SYSTEM TIME (SEC)    =   0.0000    
       ELAPSED TOTAL CPU TIME (SEC) =  0.20000    
       ELAPSED WALLCLOCK TIME (SEC) =          0

               CONVERGENCE CHECKS FOR EQUILIBRIUM ITERATION     1


 AVERAGE FORCE                      2.373E+05   TIME AVG. FORCE       2.311E+05
 LARGEST RESIDUAL FORCE             1.917E-02   AT NODE     201004   DOF  1
   INSTANCE: SUSPENSIONBRIDGE                                                                
 LARGEST INCREMENT OF DISP.        -1.000E-13   AT NODE      12059   DOF  3
   INSTANCE: SUSPENSIONBRIDGE                                                                
 LARGEST CORRECTION TO DISP.       -1.140E-13   AT NODE      12059   DOF  3
   INSTANCE: SUSPENSIONBRIDGE                                                                
          FORCE     EQUILIB. ACCEPTED BASED ON SMALL RESIDUAL AND SMALL MAGNITUDE
           OF THE INCREMENT OF DISPLACEMENT

 AVERAGE MOMENT                     4.823E+04   TIME AVG. MOMENT      4.823E+04
 LARGEST RESIDUAL MOMENT            5.046E-03   AT NODE      12001   DOF  6
   INSTANCE: SUSPENSIONBRIDGE                                                                
 LARGEST INCREMENT OF ROTATION     -1.324E-12   AT NODE      10061   DOF  4
   INSTANCE: SUSPENSIONBRIDGE                                                                
 LARGEST CORRECTION TO ROTATION    -2.065E-12   AT NODE      10061   DOF  4
   INSTANCE: SUSPENSIONBRIDGE                                                                
          THE MOMENT    EQUILIBRIUM EQUATIONS HAVE CONVERGED

 ITERATION SUMMARY FOR THE INCREMENT:   1 TOTAL ITERATIONS, OF WHICH
   0 ARE SEVERE DISCONTINUITY ITERATIONS AND  1 ARE EQUILIBRIUM ITERATIONS.

 TIME INCREMENT COMPLETED  8.750E-02,  FRACTION OF STEP COMPLETED   1.00    
 STEP TIME COMPLETED        1.00    ,  TOTAL TIME COMPLETED         4.00    
1

   Abaqus 3DEXPERIENCE R2017x                                  Date 26-Apr-2022   Time 16:50:00
   For use by NTNU NORGES TEKNISK NATURVITENSKAPELIGE UNIVERSITET under license from Dassault Systemes or its subsidiary.

                                                                                 
                                                                                 
 STEP    5     INCREMENT     1     STEP TIME    0.00    


                        S T E P       5     C A L C U L A T I O N   O F   E I G E N V A L U E S

                                            F O R   N A T U R A L   F R E Q U E N C I E S



                                                                                          

     THE LANCZOS EIGENSOLVER IS USED FOR THIS ANALYSIS
     Abaqus WILL COMPUTE UNCOUPLED
      STRUCTURAL AND ACOUSTIC MODES
     NUMBER OF EIGENVALUES                    100
     HIGHEST FREQUENCY OF INTEREST                  1.00000E+18
     MAXIMUM NUMBER OF STEPS WITHIN RUN               35
     BLOCK SIZE FOR LANCZOS PROCEDURE                  7
     THE EIGENVECTORS ARE SCALED SO THAT 
      THE LARGEST DISPLACEMENT ENTRY IN EACH VECTOR
      IS UNITY
                              INITIAL STRESS AND DISPLACEMENT EFFECTS ARE
                              INCLUDED IN THE STIFFNESS MATRIX

     THIS IS A LINEAR PERTURBATION STEP.
     ALL LOADS ARE DEFINED AS CHANGE IN LOAD TO THE REFERENCE STATE

          LARGE DISPLACEMENT THEORY WILL BE USED

     EXTRAPOLATION WILL NOT BE USED

     CHARACTERISTIC ELEMENT LENGTH      1.84    

     DETAILS REGARDING ACTUAL SOLUTION WAVEFRONT REQUESTED

     DETAILED OUTPUT OF DIAGNOSTICS TO DATABASE REQUESTED

     PRINT OF INCREMENT NUMBER, TIME, ETC., TO THE MESSAGE FILE EVERY     1  INCREMENTS

 ***NOTE: SHARED MEMORY EXECUTION OF THE ELEMENT CALCULATIONS HAS BEEN TURNED 
          OFF DUE TO THE FOLLOWING FEATURE: SIM ARCHITECTURE IS NOT ACTIVE

     ELEMENT OPERATIONS WILL NOT BE CARRIED OUT IN PARALLEL

     COLLECTING STEP CONSTRAINT INFORMATION FOR OVERCONSTRAINT CHECKS

     CHECK POINT   START OF SOLVER    
  
 COMPUTER PRECISION USED BY ABAQUS      2.22045e-016
 CONVERGENCE CRITERION FOR LANCZOS RUN  1.81899e-012
  
 NUMBER OF EQUATIONS                                                        3858
 NUMBER OF UNRESTRAINED DEGREES OF FREEDOM                                  3794
 HEURISTIC SCALE FOR THE FIRST NONZERO EIGENVALUES (PROBLEM SCALE)  1.76116e-002
 INITIAL SHIFT VALUE                                                0.00000e+000
  
 NUMBER OF CPUS USED BY DIRECT SOLVER     4
  
 NUMBER OF NEGATIVE EIGENVALUES     0
 NUMBER OF POSITIVE EIGENVALUES  3858
 NUMBER OF NEGATIVE EIGENVALUES NOT ASSOCIATED WITH LAGRANGE MULTIPLIERS     0
 NUMBER OF LAGRANGE MULTIPLIERS     0
  
 COMPUTATIONAL INTERVAL FOR THE INITIAL LANCZOS RUN
 
 EIGENVALUES NEEDED TO THE RIGHT OF SHIFT VALUE  100
 EIGENVALUES NEEDED TO THE LEFT OF SHIFT VALUE     0
 RIGHT BOUNDARY OF THE COMPUTATIONAL INTERVAL  3.95574e+037
 LEFT BOUNDARY OF THE COMPUTATIONAL INTERVAL  -3.95574e+037
  
 LANCZOS RUN TERMINATED. NUMBER OF STEPS:   15
 TERMINATION BASED ON THE COST-PER-EIGENVALUE CRITERION
  
 NUMBER OF ACCEPTED EIGENVALUES   30
  
 ACCEPTED EIGENVALUES
  7.25195e+000 1.34543e+001 2.43777e+001 3.09631e+001 3.30896e+001 6.36263e+001
  1.03540e+002 1.69141e+002 1.74433e+002 1.74444e+002 1.75225e+002 1.75226e+002
  1.76367e+002 1.76933e+002 1.77252e+002 1.77324e+002 1.80525e+002 1.85318e+002
  1.92825e+002 1.95526e+002 2.42446e+002 2.79122e+002 3.60494e+002 3.84777e+002
  4.54941e+002 4.56976e+002 5.53784e+002 5.72284e+002 5.73556e+002 7.72459e+002
  
 FACTORIZATION WITH NEW SHIFT VALUE IS REQUIRED
  
 TRUST INTERVALS AFTER LANCZOS RUN AND COMPRESSION
  
 NUMBER OF TRUST INTERVALS    1
  
 -------------------------------------------------------------------------------------
 | KEY | INSIDE |      INERTIAS     |  SENTINELS  |   OUTSIDE   |  NEED TO FIND      |
 |      ENDS OF INTERVAL     |     ENDS OF SENTINEL      |   COMPUTATIONAL INTERVAL  |
 -------------------------------------------------------------------------------------
 |  +  |      0 |        0        0 |     0     0 |     0     0 |      0   100       |
 |-3.95574e+037 0.00000e+000 |-3.95574e+037 0.00000e+000 |-3.95574e+037 3.95574e+037 |
 -------------------------------------------------------------------------------------
  
 DATA FOR CHOOSING SHIFT
  
 NUMBER OF EIGENVALUES NEEDED IN THE PRIMARY TRUST INTERVAL  100
  
 NUMBER OF MODES FORMING SENTINEL TO THE RIGHT   29
 SHIFT RIGHT        2.19619e+003
  
 NUMBER OF MODES FORMING SENTINEL TO THE LEFT     0
 SHIFT LEFT         0.00000e+000
  
 SHIFTING TO THE RIGHT DIRECTION
 NEW SHIFT          2.19619e+003
  
 NUMBER OF NEGATIVE EIGENVALUES    58
 NUMBER OF POSITIVE EIGENVALUES  3800
 NUMBER OF NEGATIVE EIGENVALUES NOT ASSOCIATED WITH LAGRANGE MULTIPLIERS    58
 NUMBER OF LAGRANGE MULTIPLIERS     0
  
 NEW LANCZOS RUN IS REQUIRED
  
 TYPE OF RUN: EXPAND THE TRUST INTERVAL TO THE RIGHT
 EIGENVALUES NEEDED TO THE RIGHT    42
 EIGENVALUES NEEDED TO THE LEFT     28
 RIGHT BOUNDARY OF THE INTERVAL  3.95574e+037
 LEFT BOUNDARY OF THE INTERVAL   5.73556e+002
  
 TRUST INTERVALS AFTER FACTORIZATION AND COMPRESSION
  
 -------------------------------------------------------------------------------------
 | KEY | INSIDE |      INERTIAS     |  SENTINELS  |   OUTSIDE   |  NEED TO FIND      |
 |      ENDS OF INTERVAL     |     ENDS OF SENTINEL      |   COMPUTATIONAL INTERVAL  |
 -------------------------------------------------------------------------------------
 |  +  |      0 |        0        0 |     0    29 |     0    30 |      0   100       |
 |-3.95574e+037 0.00000e+000 |-3.95574e+037 5.73556e+002 |-3.95574e+037 3.95574e+037 |
 -------------------------------------------------------------------------------------
 |  -  |      0 |       58       58 |     0     0 |     0     0 |     28    42       |
 | 2.19619e+003 2.19619e+003 | 2.19619e+003 2.19619e+003 | 5.73556e+002 3.95574e+037 |
 -------------------------------------------------------------------------------------
  
 LANCZOS RUN TERMINATED. NUMBER OF STEPS:   23
 TERMINATION BASED ON THE COST-PER-EIGENVALUE CRITERION
  
 NUMBER OF ACCEPTED EIGENVALUES   90
  
 ACCEPTED EIGENVALUES
  7.25195e+000 1.34543e+001 2.43777e+001 3.09631e+001 3.30896e+001 6.36263e+001
  1.03540e+002 1.69141e+002 1.74433e+002 1.74444e+002 1.75225e+002 1.75226e+002
  1.76367e+002 1.76933e+002 1.77252e+002 1.77324e+002 1.80525e+002 1.85318e+002
  1.92825e+002 1.95526e+002 2.42446e+002 2.79122e+002 3.60494e+002 3.84777e+002
  4.54941e+002 4.56976e+002 5.53784e+002 5.72284e+002 5.73556e+002 6.97509e+002
  6.97608e+002 7.00952e+002 7.00957e+002 7.03462e+002 7.03526e+002 7.03528e+002
  7.03560e+002 7.72459e+002 8.66592e+002 8.70096e+002 1.05561e+003 1.14436e+003
  1.14960e+003 1.41208e+003 1.51540e+003 1.52670e+003 1.56752e+003 1.56900e+003
  1.57731e+003 1.57732e+003 1.58350e+003 1.58352e+003 1.58352e+003 1.58353e+003
  1.72283e+003 1.85625e+003 1.92848e+003 1.94000e+003 2.40092e+003 2.40185e+003
  2.42071e+003 2.77207e+003 2.77602e+003 2.80458e+003 2.80460e+003 2.81376e+003
  2.81468e+003 2.81484e+003 2.81496e+003 2.92890e+003 2.95208e+003 3.06134e+003
  3.46868e+003 3.54319e+003 3.67310e+003 3.85407e+003 4.00514e+003 4.18827e+003
  4.24129e+003 4.24476e+003 4.29137e+003 4.38302e+003 4.39903e+003 4.40859e+003
  4.65705e+003 4.70474e+003 4.79737e+003 4.89299e+003 5.08082e+003 5.20154e+003
  
 FACTORIZATION WITH NEW SHIFT VALUE IS REQUIRED
  
 TRUST INTERVALS AFTER LANCZOS RUN AND COMPRESSION
  
 NUMBER OF TRUST INTERVALS    1
  
 -------------------------------------------------------------------------------------
 | KEY | INSIDE |      INERTIAS     |  SENTINELS  |   OUTSIDE   |  NEED TO FIND      |
 |      ENDS OF INTERVAL     |     ENDS OF SENTINEL      |   COMPUTATIONAL INTERVAL  |
 -------------------------------------------------------------------------------------
 |  +  |     58 |        0       58 |     0     0 |     0     0 |      0    42       |
 |-3.95574e+037 2.19619e+003 |-3.95574e+037 2.19619e+003 |-3.95574e+037 3.95574e+037 |
 -------------------------------------------------------------------------------------
  
 DATA FOR CHOOSING SHIFT
  
 NUMBER OF EIGENVALUES NEEDED IN THE PRIMARY TRUST INTERVAL   42
  
 NUMBER OF MODES FORMING SENTINEL TO THE RIGHT   24
 SHIFT RIGHT        6.33560e+003
  
 NUMBER OF MODES FORMING SENTINEL TO THE LEFT    28
 SHIFT LEFT        -7.86184e+002
  
 SHIFTING TO THE RIGHT DIRECTION
 NEW SHIFT          6.33560e+003
  
 NUMBER OF NEGATIVE EIGENVALUES   100
 NUMBER OF POSITIVE EIGENVALUES  3758
 NUMBER OF NEGATIVE EIGENVALUES NOT ASSOCIATED WITH LAGRANGE MULTIPLIERS   100
 NUMBER OF LAGRANGE MULTIPLIERS     0
  
 NEW LANCZOS RUN IS REQUIRED
  
 TYPE OF RUN: EXPAND THE TRUST INTERVAL TO THE RIGHT
 EIGENVALUES NEEDED TO THE RIGHT     0
 EIGENVALUES NEEDED TO THE LEFT     10
 RIGHT BOUNDARY OF THE INTERVAL  6.33560e+003
 LEFT BOUNDARY OF THE INTERVAL   4.38302e+003
  
 TRUST INTERVALS AFTER FACTORIZATION AND COMPRESSION
  
 -------------------------------------------------------------------------------------
 | KEY | INSIDE |      INERTIAS     |  SENTINELS  |   OUTSIDE   |  NEED TO FIND      |
 |      ENDS OF INTERVAL     |     ENDS OF SENTINEL      |   COMPUTATIONAL INTERVAL  |
 -------------------------------------------------------------------------------------
 |  +  |     58 |        0       58 |     0    24 |     0    32 |      0    42       |
 |-3.95574e+037 2.19619e+003 |-3.95574e+037 4.38302e+003 |-3.95574e+037 3.95574e+037 |
 -------------------------------------------------------------------------------------
 |  -  |      0 |      100      100 |     0     0 |     0     0 |     10     0       |
 | 6.33560e+003 6.33560e+003 | 6.33560e+003 6.33560e+003 | 4.38302e+003 6.33560e+003 |
 -------------------------------------------------------------------------------------
  
 LANCZOS RUN TERMINATED. NUMBER OF STEPS:   14
 ALL THE EIGENVALUES REQUESTED ON THIS LANCZOS RUN ARE FOUND
  
 NUMBER OF ACCEPTED EIGENVALUES  100
  
 ACCEPTED EIGENVALUES
  7.25195e+000 1.34543e+001 2.43777e+001 3.09631e+001 3.30896e+001 6.36263e+001
  1.03540e+002 1.69141e+002 1.74433e+002 1.74444e+002 1.75225e+002 1.75226e+002
  1.76367e+002 1.76933e+002 1.77252e+002 1.77324e+002 1.80525e+002 1.85318e+002
  1.92825e+002 1.95526e+002 2.42446e+002 2.79122e+002 3.60494e+002 3.84777e+002
  4.54941e+002 4.56976e+002 5.53784e+002 5.72284e+002 5.73556e+002 6.97509e+002
  6.97608e+002 7.00952e+002 7.00957e+002 7.03462e+002 7.03526e+002 7.03528e+002
  7.03560e+002 7.72459e+002 8.66592e+002 8.70096e+002 1.05561e+003 1.14436e+003
  1.14960e+003 1.41208e+003 1.51540e+003 1.52670e+003 1.56752e+003 1.56900e+003
  1.57731e+003 1.57732e+003 1.58350e+003 1.58352e+003 1.58352e+003 1.58353e+003
  1.72283e+003 1.85625e+003 1.92848e+003 1.94000e+003 2.40092e+003 2.40185e+003
  2.42071e+003 2.77207e+003 2.77602e+003 2.80458e+003 2.80460e+003 2.81376e+003
  2.81468e+003 2.81484e+003 2.81496e+003 2.92890e+003 2.95208e+003 3.06134e+003
  3.46868e+003 3.54319e+003 3.67310e+003 3.85407e+003 4.00514e+003 4.18827e+003
  4.24129e+003 4.24476e+003 4.29137e+003 4.38302e+003 4.38309e+003 4.39903e+003
  4.39934e+003 4.39951e+003 4.40859e+003 4.65705e+003 4.70474e+003 4.79737e+003
  4.89299e+003 5.08082e+003 5.20154e+003 5.64989e+003 5.71917e+003 5.90446e+003
  6.31314e+003 6.31328e+003 6.31618e+003 6.33499e+003
  
 THE REQUIRED NUMBER OF EIGENVALUES IS FOUND
  
 FINAL TRUST INTERVALS AFTER SUCCESSFUL LANCZOS RUN
  
 NUMBER OF TRUST INTERVALS    1
  
 -------------------------------------------------------------------------------------
 | KEY | INSIDE |      INERTIAS     |  SENTINELS  |   OUTSIDE   |  NEED TO FIND      |
 |      ENDS OF INTERVAL     |     ENDS OF SENTINEL      |   COMPUTATIONAL INTERVAL  |
 -------------------------------------------------------------------------------------
 |  +  |    100 |        0      100 |     0     0 |     0     0 |      0     0       |
 |-3.95574e+037 6.33560e+003 |-3.95574e+037 6.33560e+003 |-3.95574e+037 6.33560e+003 |
 -------------------------------------------------------------------------------------
  
 FIRST EIGENVALUE REQUESTED BY THE USER     1
  
 EIGENVALUES REQUESTED BY THE USER
  7.25195e+000 1.34543e+001 2.43777e+001 3.09631e+001 3.30896e+001 6.36263e+001
  1.03540e+002 1.69141e+002 1.74433e+002 1.74444e+002 1.75225e+002 1.75226e+002
  1.76367e+002 1.76933e+002 1.77252e+002 1.77324e+002 1.80525e+002 1.85318e+002
  1.92825e+002 1.95526e+002 2.42446e+002 2.79122e+002 3.60494e+002 3.84777e+002
  4.54941e+002 4.56976e+002 5.53784e+002 5.72284e+002 5.73556e+002 6.97509e+002
  6.97608e+002 7.00952e+002 7.00957e+002 7.03462e+002 7.03526e+002 7.03528e+002
  7.03560e+002 7.72459e+002 8.66592e+002 8.70096e+002 1.05561e+003 1.14436e+003
  1.14960e+003 1.41208e+003 1.51540e+003 1.52670e+003 1.56752e+003 1.56900e+003
  1.57731e+003 1.57732e+003 1.58350e+003 1.58352e+003 1.58352e+003 1.58353e+003
  1.72283e+003 1.85625e+003 1.92848e+003 1.94000e+003 2.40092e+003 2.40185e+003
  2.42071e+003 2.77207e+003 2.77602e+003 2.80458e+003 2.80460e+003 2.81376e+003
  2.81468e+003 2.81484e+003 2.81496e+003 2.92890e+003 2.95208e+003 3.06134e+003
  3.46868e+003 3.54319e+003 3.67310e+003 3.85407e+003 4.00514e+003 4.18827e+003
  4.24129e+003 4.24476e+003 4.29137e+003 4.38302e+003 4.38309e+003 4.39903e+003
  4.39934e+003 4.39951e+003 4.40859e+003 4.65705e+003 4.70474e+003 4.79737e+003
  4.89299e+003 5.08082e+003 5.20154e+003 5.64989e+003 5.71917e+003 5.90446e+003
  6.31314e+003 6.31328e+003 6.31618e+003 6.33499e+003
  
 EIGENVALUE EXTRACTION USING THE LANCZOS EIGENSOLVER IS COMPLETE
 NUMBER OF LANCZOS RUNS       :   3
 NUMBER OF LANCZOS STEPS      :  52
 NUMBER OF FACTORIZATIONS     :   3
 NUMBER OF BACK SUBSTITUTIONS :  53

     CHECK POINT  END OF SOLVER       

       ELAPSED USER TIME (SEC)      =   5.0000    
       ELAPSED SYSTEM TIME (SEC)    =  0.40000    
       ELAPSED TOTAL CPU TIME (SEC) =   5.4000    
       ELAPSED WALLCLOCK TIME (SEC) =          4


          THE ANALYSIS HAS BEEN COMPLETED



     ANALYSIS SUMMARY:
     TOTAL OF        149  INCREMENTS
                      14  CUTBACKS IN AUTOMATIC INCREMENTATION
                     455  ITERATIONS INCLUDING CONTACT ITERATIONS IF PRESENT
                     511  PASSES THROUGH THE EQUATION SOLVER OF WHICH 
                     458  INVOLVE MATRIX DECOMPOSITION, INCLUDING
                       0  DECOMPOSITION(S) OF THE MASS MATRIX
                       1  REORDERING OF EQUATIONS TO MINIMIZE WAVEFRONT
                       0  ADDITIONAL RESIDUAL EVALUATIONS FOR LINE SEARCHES
                       0  ADDITIONAL OPERATOR EVALUATIONS FOR LINE SEARCHES
                      45  WARNING MESSAGES DURING USER INPUT PROCESSING
                     184  WARNING MESSAGES DURING ANALYSIS
                     123  ANALYSIS WARNINGS ARE NUMERICAL PROBLEM MESSAGES
                      60  ANALYSIS WARNINGS ARE NEGATIVE EIGENVALUE MESSAGES
                       0  ERROR MESSAGES



     JOB TIME SUMMARY
       USER TIME (SEC)      =   90.500    
       SYSTEM TIME (SEC)    =   20.800    
       TOTAL CPU TIME (SEC) =   111.30    
       WALLCLOCK TIME (SEC) =         63
