1

   Abaqus 3DEXPERIENCE R2017x                                  Date 26-Dec-2022   Time 15:50:35
   For use by NTNU NORGES TEKNISK NATURVITENSKAPELIGE UNIVERSITET under license from Dassault Systemes or its subsidiary.



                         The Abaqus Software is a product of:

                           Dassault Systemes SIMULIA Corp.
                           1301 Atwood Avenue, Suite 101W
                              Johnston, RI 02919, USA
 


                   The Abaqus Software is available only under license
                   from Dassault Systemes or its subsidiary and may be
                   used or reproduced only in accordance with the terms
                   of such license.
 
                          On machine NTNU08422 
                          you are authorized to run
                          Abaqus/Standard until 30-Sep-2023

                          Your site id is: 100000000001981 


 
                    For assistance or any other information you may
                    obtain contact information for your local office
                    from the world wide web at:

                      http://www.3ds.com/products/simulia/locations/

 
                * * * * * * * * * * * * * * * * * * * * * * * * * * * * * * 
                *                                                         * 
                *                   *****************                     * 
                *                   *  N O T I C E  *                     * 
                *                   *****************                     * 
                *                                                         * 
                *                                                         * 
                *               Abaqus 3DEXPERIENCE R2017x                * 
                *                                                         * 
                *          BUILD ID: 2016_09_27-23.54.59 126836           * 
                *                                                         * 
                *                                                         * 
                *  Please make sure you are using                         * 
                *  release 3DEXPERIENCE R2017x manuals                    * 
                *  plus the notes accompanying this release.              * 
                *                                                         * 
                *                                                         * 
                *                                                         * 
                *                                                         * 
                *                                                         * 
                *   This program may not be used for commercial purposes  * 
                *           without payment of a commercial fee.          * 
                *                                                         * 
                * * * * * * * * * * * * * * * * * * * * * * * * * * * * * * 


 



     PROCESSING PART, INSTANCE, AND ASSEMBLY INFORMATION
   *******************************************************


     END PROCESSING PART, INSTANCE, AND ASSEMBLY INFORMATION
   ***********************************************************




     OPTIONS BEING PROCESSED
   ***************************


  *Node
  *Element, type=B31
  *Element, type=B33
  *Element, type=B31
  *Element, type=SPRING2
  *Element, type=B31
  *Element, type=SPRING2
  *Element, type=B31
  *Element, type=S4R
  *Nset, nset=ASSEMBLYSUSPENSIONBRIDGE_SUSPENSIONBRIDGE_BEARINGLOW1_NORTH
  *Nset, nset=ASSEMBLYSUSPENSIONBRIDGE_SUSPENSIONBRIDGE_BEARINGLOW1_SOUTH
  *Nset, nset=ASSEMBLYSUSPENSIONBRIDGE_SUSPENSIONBRIDGE_BEARINGTOP1_NORTH
  *Nset, nset=ASSEMBLYSUSPENSIONBRIDGE_SUSPENSIONBRIDGE_BEARINGTOP1_SOUTH
  *Nset, nset=ASSEMBLYSUSPENSIONBRIDGE_SUSPENSIONBRIDGE_BRIDGEDECK_COG
  *Nset, nset=ASSEMBLYSUSPENSIONBRIDGE_SUSPENSIONBRIDGE_BRIDGEOUTER_EAST
  *Nset, nset=ASSEMBLYSUSPENSIONBRIDGE_SUSPENSIONBRIDGE_BRIDGEOUTER_WEST
  *Nset, nset=ASSEMBLYSUSPENSIONBRIDGE_SUSPENSIONBRIDGE_CABLE_MAIN_ANCHORAGE
  *Nset, nset=ASSEMBLYSUSPENSIONBRIDGE_SUSPENSIONBRIDGE_CABLE_MAIN_EAST
  *Nset, nset=ASSEMBLYSUSPENSIONBRIDGE_SUSPENSIONBRIDGE_CABLE_MAIN_SPAN
  *Nset, nset=ASSEMBLYSUSPENSIONBRIDGE_SUSPENSIONBRIDGE_CABLE_MAIN_TOP
  *Nset, nset=ASSEMBLYSUSPENSIONBRIDGE_SUSPENSIONBRIDGE_CABLE_MAIN_TOP_NORTH_EAST
  *Nset, nset=ASSEMBLYSUSPENSIONBRIDGE_SUSPENSIONBRIDGE_CABLE_MAIN_TOP_NORTH_WEST
  *Nset, nset=ASSEMBLYSUSPENSIONBRIDGE_SUSPENSIONBRIDGE_CABLE_MAIN_TOP_SOUTH_EAST
  *Nset, nset=ASSEMBLYSUSPENSIONBRIDGE_SUSPENSIONBRIDGE_CABLE_MAIN_TOP_SOUTH_WEST
  *Nset, nset=ASSEMBLYSUSPENSIONBRIDGE_SUSPENSIONBRIDGE_CABLE_MAIN_WEST
  *Nset, nset=ASSEMBLYSUSPENSIONBRIDGE_SUSPENSIONBRIDGE_TOWER_BASE
  *Nset, nset=ASSEMBLYSUSPENSIONBRIDGE_SUSPENSIONBRIDGE_TOWER_CROSSBEAM_NORTH_1
  *Nset, nset=ASSEMBLYSUSPENSIONBRIDGE_SUSPENSIONBRIDGE_TOWER_CROSSBEAM_NORTH_1_END
  *Nset, nset=ASSEMBLYSUSPENSIONBRIDGE_SUSPENSIONBRIDGE_TOWER_CROSSBEAM_NORTH_1_START
  *Nset, nset=ASSEMBLYSUSPENSIONBRIDGE_SUSPENSIONBRIDGE_TOWER_CROSSBEAM_NORTH_2
  *Nset, nset=ASSEMBLYSUSPENSIONBRIDGE_SUSPENSIONBRIDGE_TOWER_CROSSBEAM_NORTH_2_END
  *Nset, nset=ASSEMBLYSUSPENSIONBRIDGE_SUSPENSIONBRIDGE_TOWER_CROSSBEAM_NORTH_2_START
  *Nset, nset=ASSEMBLYSUSPENSIONBRIDGE_SUSPENSIONBRIDGE_TOWER_CROSSBEAM_SOUTH_1
  *Nset, nset=ASSEMBLYSUSPENSIONBRIDGE_SUSPENSIONBRIDGE_TOWER_CROSSBEAM_SOUTH_1_END
  *Nset, nset=ASSEMBLYSUSPENSIONBRIDGE_SUSPENSIONBRIDGE_TOWER_CROSSBEAM_SOUTH_1_START
  *Nset, nset=ASSEMBLYSUSPENSIONBRIDGE_SUSPENSIONBRIDGE_TOWER_CROSSBEAM_SOUTH_2
  *Nset, nset=ASSEMBLYSUSPENSIONBRIDGE_SUSPENSIONBRIDGE_TOWER_CROSSBEAM_SOUTH_2_END
  *Nset, nset=ASSEMBLYSUSPENSIONBRIDGE_SUSPENSIONBRIDGE_TOWER_CROSSBEAM_SOUTH_2_START
  *Nset, nset=ASSEMBLYSUSPENSIONBRIDGE_SUSPENSIONBRIDGE_TOWER_LEG
  *Nset, nset=ASSEMBLYSUSPENSIONBRIDGE_SUSPENSIONBRIDGE_TOWER_LEG_NORTH_CROSSBEAM_1_END
  *Nset, nset=ASSEMBLYSUSPENSIONBRIDGE_SUSPENSIONBRIDGE_TOWER_LEG_NORTH_CROSSBEAM_1_START
  *Nset, nset=ASSEMBLYSUSPENSIONBRIDGE_SUSPENSIONBRIDGE_TOWER_LEG_NORTH_CROSSBEAM_2_END
  *Nset, nset=ASSEMBLYSUSPENSIONBRIDGE_SUSPENSIONBRIDGE_TOWER_LEG_NORTH_CROSSBEAM_2_START
  *Nset, nset=ASSEMBLYSUSPENSIONBRIDGE_SUSPENSIONBRIDGE_TOWER_LEG_NORTH_EAST
  *Nset, nset=ASSEMBLYSUSPENSIONBRIDGE_SUSPENSIONBRIDGE_TOWER_LEG_NORTH_WEST
  *Nset, nset=ASSEMBLYSUSPENSIONBRIDGE_SUSPENSIONBRIDGE_TOWER_LEG_SOUTH_CROSSBEAM_1_END
  *Nset, nset=ASSEMBLYSUSPENSIONBRIDGE_SUSPENSIONBRIDGE_TOWER_LEG_SOUTH_CROSSBEAM_1_START
  *Nset, nset=ASSEMBLYSUSPENSIONBRIDGE_SUSPENSIONBRIDGE_TOWER_LEG_SOUTH_CROSSBEAM_2_END
  *Nset, nset=ASSEMBLYSUSPENSIONBRIDGE_SUSPENSIONBRIDGE_TOWER_LEG_SOUTH_CROSSBEAM_2_START
  *Nset, nset=ASSEMBLYSUSPENSIONBRIDGE_SUSPENSIONBRIDGE_TOWER_LEG_SOUTH_EAST
  *Nset, nset=ASSEMBLYSUSPENSIONBRIDGE_SUSPENSIONBRIDGE_TOWER_LEG_SOUTH_WEST
  *Nset, nset=ASSEMBLYSUSPENSIONBRIDGE_SUSPENSIONBRIDGE_TOWER_TOP_NORTH_EAST
  *Nset, nset=ASSEMBLYSUSPENSIONBRIDGE_SUSPENSIONBRIDGE_TOWER_TOP_NORTH_WEST
  *Nset, nset=ASSEMBLYSUSPENSIONBRIDGE_SUSPENSIONBRIDGE_TOWER_TOP_SOUTH_EAST
  *Nset, nset=ASSEMBLYSUSPENSIONBRIDGE_SUSPENSIONBRIDGE_TOWER_TOP_SOUTH_WEST
  *Elset, elset=ASSEMBLYSUSPENSIONBRIDGE_SUSPENSIONBRIDGE_BEARING
  *Elset, elset=ASSEMBLYSUSPENSIONBRIDGE_SUSPENSIONBRIDGE_BEARINGLOW
  *Elset, elset=ASSEMBLYSUSPENSIONBRIDGE_SUSPENSIONBRIDGE_BEARINGLOW1_NORTH
  *Elset, elset=ASSEMBLYSUSPENSIONBRIDGE_SUSPENSIONBRIDGE_BEARINGLOW1_SOUTH
  *Elset, elset=ASSEMBLYSUSPENSIONBRIDGE_SUSPENSIONBRIDGE_BEARINGPENDULUM
  *Elset, elset=ASSEMBLYSUSPENSIONBRIDGE_SUSPENSIONBRIDGE_BEARINGPENDULUM1_NORTH
  *Elset, elset=ASSEMBLYSUSPENSIONBRIDGE_SUSPENSIONBRIDGE_BEARINGPENDULUM1_SOUTH
  *Elset, elset=ASSEMBLYSUSPENSIONBRIDGE_SUSPENSIONBRIDGE_BEARINGSPRING
  *Elset, elset=ASSEMBLYSUSPENSIONBRIDGE_SUSPENSIONBRIDGE_BEARINGSPRING1_NORTH
  *Elset, elset=ASSEMBLYSUSPENSIONBRIDGE_SUSPENSIONBRIDGE_BEARINGSPRING1_NORTH_RX
  *Elset, elset=ASSEMBLYSUSPENSIONBRIDGE_SUSPENSIONBRIDGE_BEARINGSPRING1_NORTH_RY
  *Elset, elset=ASSEMBLYSUSPENSIONBRIDGE_SUSPENSIONBRIDGE_BEARINGSPRING1_NORTH_RZ
  *Elset, elset=ASSEMBLYSUSPENSIONBRIDGE_SUSPENSIONBRIDGE_BEARINGSPRING1_NORTH_X
  *Elset, elset=ASSEMBLYSUSPENSIONBRIDGE_SUSPENSIONBRIDGE_BEARINGSPRING1_NORTH_Y
  *Elset, elset=ASSEMBLYSUSPENSIONBRIDGE_SUSPENSIONBRIDGE_BEARINGSPRING1_NORTH_Z
  *Elset, elset=ASSEMBLYSUSPENSIONBRIDGE_SUSPENSIONBRIDGE_BEARINGSPRING1_SOUTH
  *Elset, elset=ASSEMBLYSUSPENSIONBRIDGE_SUSPENSIONBRIDGE_BEARINGSPRING1_SOUTH_RX
  *Elset, elset=ASSEMBLYSUSPENSIONBRIDGE_SUSPENSIONBRIDGE_BEARINGSPRING1_SOUTH_RY
  *Elset, elset=ASSEMBLYSUSPENSIONBRIDGE_SUSPENSIONBRIDGE_BEARINGSPRING1_SOUTH_RZ
  *Elset, elset=ASSEMBLYSUSPENSIONBRIDGE_SUSPENSIONBRIDGE_BEARINGSPRING1_SOUTH_X
  *Elset, elset=ASSEMBLYSUSPENSIONBRIDGE_SUSPENSIONBRIDGE_BEARINGSPRING1_SOUTH_Y
  *Elset, elset=ASSEMBLYSUSPENSIONBRIDGE_SUSPENSIONBRIDGE_BEARINGSPRING1_SOUTH_Z
  *Elset, elset=ASSEMBLYSUSPENSIONBRIDGE_SUSPENSIONBRIDGE_BEARINGTOP
  *Elset, elset=ASSEMBLYSUSPENSIONBRIDGE_SUSPENSIONBRIDGE_BEARINGTOP1_NORTH
  *Elset, elset=ASSEMBLYSUSPENSIONBRIDGE_SUSPENSIONBRIDGE_BEARINGTOP1_SOUTH
  *Elset, elset=ASSEMBLYSUSPENSIONBRIDGE_SUSPENSIONBRIDGE_BRIDGEDECK
  *Elset, elset=ASSEMBLYSUSPENSIONBRIDGE_SUSPENSIONBRIDGE_BRIDGEDECK_COG
  *Elset, elset=ASSEMBLYSUSPENSIONBRIDGE_SUSPENSIONBRIDGE_BRIDGEDECK_SHELL
  *Elset, elset=ASSEMBLYSUSPENSIONBRIDGE_SUSPENSIONBRIDGE_BRIDGEDECK_SHELL_EAST
  *Elset, elset=ASSEMBLYSUSPENSIONBRIDGE_SUSPENSIONBRIDGE_BRIDGEDECK_SHELL_WEST
  *Elset, elset=ASSEMBLYSUSPENSIONBRIDGE_SUSPENSIONBRIDGE_CABLE_MAIN
  *Elset, elset=ASSEMBLYSUSPENSIONBRIDGE_SUSPENSIONBRIDGE_CABLE_MAIN_EAST
  *Elset, elset=ASSEMBLYSUSPENSIONBRIDGE_SUSPENSIONBRIDGE_CABLE_MAIN_SPAN
  *Elset, elset=ASSEMBLYSUSPENSIONBRIDGE_SUSPENSIONBRIDGE_CABLE_MAIN_WEST
  *Elset, elset=ASSEMBLYSUSPENSIONBRIDGE_SUSPENSIONBRIDGE_CABLE_TEMPSUPPORT
  *Elset, elset=ASSEMBLYSUSPENSIONBRIDGE_SUSPENSIONBRIDGE_HANGER
  *Elset, elset=ASSEMBLYSUSPENSIONBRIDGE_SUSPENSIONBRIDGE_HANGER_EAST
  *Elset, elset=ASSEMBLYSUSPENSIONBRIDGE_SUSPENSIONBRIDGE_HANGER_WEST
  *Elset, elset=ASSEMBLYSUSPENSIONBRIDGE_SUSPENSIONBRIDGE_LATCONNOUTER
  *Elset, elset=ASSEMBLYSUSPENSIONBRIDGE_SUSPENSIONBRIDGE_LATCONNOUTEREAST
  *Elset, elset=ASSEMBLYSUSPENSIONBRIDGE_SUSPENSIONBRIDGE_LATCONNOUTERWEST
  *Elset, elset=ASSEMBLYSUSPENSIONBRIDGE_SUSPENSIONBRIDGE_SADLESPRING
  *Elset, elset=ASSEMBLYSUSPENSIONBRIDGE_SUSPENSIONBRIDGE_SADLESPRING_X
  *Elset, elset=ASSEMBLYSUSPENSIONBRIDGE_SUSPENSIONBRIDGE_SADLESPRING_Y
  *Elset, elset=ASSEMBLYSUSPENSIONBRIDGE_SUSPENSIONBRIDGE_SADLESPRING_Z
  *Elset, elset=ASSEMBLYSUSPENSIONBRIDGE_SUSPENSIONBRIDGE_TOWER
  *Elset, elset=ASSEMBLYSUSPENSIONBRIDGE_SUSPENSIONBRIDGE_TOWER_CROSSBEAM
  *Elset, elset=ASSEMBLYSUSPENSIONBRIDGE_SUSPENSIONBRIDGE_TOWER_CROSSBEAM_NORTH_1
  *Elset, elset=ASSEMBLYSUSPENSIONBRIDGE_SUSPENSIONBRIDGE_TOWER_CROSSBEAM_NORTH_2
  *Elset, elset=ASSEMBLYSUSPENSIONBRIDGE_SUSPENSIONBRIDGE_TOWER_CROSSBEAM_SOUTH_1
  *Elset, elset=ASSEMBLYSUSPENSIONBRIDGE_SUSPENSIONBRIDGE_TOWER_CROSSBEAM_SOUTH_2
  *Elset, elset=ASSEMBLYSUSPENSIONBRIDGE_SUSPENSIONBRIDGE_TOWER_LEG
  *Elset, elset=ASSEMBLYSUSPENSIONBRIDGE_SUSPENSIONBRIDGE_TOWER_LEG_NORTH_EAST
  *Elset, elset=ASSEMBLYSUSPENSIONBRIDGE_SUSPENSIONBRIDGE_TOWER_LEG_NORTH_WEST
  *Elset, elset=ASSEMBLYSUSPENSIONBRIDGE_SUSPENSIONBRIDGE_TOWER_LEG_SOUTH_EAST
  *Elset, elset=ASSEMBLYSUSPENSIONBRIDGE_SUSPENSIONBRIDGE_TOWER_LEG_SOUTH_WEST
  *Elset, elset=ASSEMBLYSUSPENSIONBRIDGE_SUSPENSIONBRIDGE_TOWER_NORTH_CS_001
  *Elset, elset=ASSEMBLYSUSPENSIONBRIDGE_SUSPENSIONBRIDGE_TOWER_NORTH_CS_002
  *Elset, elset=ASSEMBLYSUSPENSIONBRIDGE_SUSPENSIONBRIDGE_TOWER_NORTH_CS_003
  *Elset, elset=ASSEMBLYSUSPENSIONBRIDGE_SUSPENSIONBRIDGE_TOWER_NORTH_CS_004
  *Elset, elset=ASSEMBLYSUSPENSIONBRIDGE_SUSPENSIONBRIDGE_TOWER_NORTH_CS_005
  *Elset, elset=ASSEMBLYSUSPENSIONBRIDGE_SUSPENSIONBRIDGE_TOWER_NORTH_CS_006
  *Elset, elset=ASSEMBLYSUSPENSIONBRIDGE_SUSPENSIONBRIDGE_TOWER_NORTH_CS_007
  *Elset, elset=ASSEMBLYSUSPENSIONBRIDGE_SUSPENSIONBRIDGE_TOWER_NORTH_CS_008
  *Elset, elset=ASSEMBLYSUSPENSIONBRIDGE_SUSPENSIONBRIDGE_TOWER_NORTH_CS_009
  *Elset, elset=ASSEMBLYSUSPENSIONBRIDGE_SUSPENSIONBRIDGE_TOWER_NORTH_CS_010
  *Elset, elset=ASSEMBLYSUSPENSIONBRIDGE_SUSPENSIONBRIDGE_TOWER_NORTH_CS_011
  *Elset, elset=ASSEMBLYSUSPENSIONBRIDGE_SUSPENSIONBRIDGE_TOWER_NORTH_CS_012
  *Elset, elset=ASSEMBLYSUSPENSIONBRIDGE_SUSPENSIONBRIDGE_TOWER_NORTH_CS_013
  *Elset, elset=ASSEMBLYSUSPENSIONBRIDGE_SUSPENSIONBRIDGE_TOWER_NORTH_CS_014
  *Elset, elset=ASSEMBLYSUSPENSIONBRIDGE_SUSPENSIONBRIDGE_TOWER_NORTH_CS_015
  *Elset, elset=ASSEMBLYSUSPENSIONBRIDGE_SUSPENSIONBRIDGE_TOWER_NORTH_CS_016
  *Elset, elset=ASSEMBLYSUSPENSIONBRIDGE_SUSPENSIONBRIDGE_TOWER_NORTH_CS_017
  *Elset, elset=ASSEMBLYSUSPENSIONBRIDGE_SUSPENSIONBRIDGE_TOWER_NORTH_CS_018
  *Elset, elset=ASSEMBLYSUSPENSIONBRIDGE_SUSPENSIONBRIDGE_TOWER_NORTH_CS_019
  *Elset, elset=ASSEMBLYSUSPENSIONBRIDGE_SUSPENSIONBRIDGE_TOWER_NORTH_CS_020
  *Elset, elset=ASSEMBLYSUSPENSIONBRIDGE_SUSPENSIONBRIDGE_TOWER_NORTH_CS_021
  *Elset, elset=ASSEMBLYSUSPENSIONBRIDGE_SUSPENSIONBRIDGE_TOWER_NORTH_CS_022
  *Elset, elset=ASSEMBLYSUSPENSIONBRIDGE_SUSPENSIONBRIDGE_TOWER_NORTH_CS_023
  *Elset, elset=ASSEMBLYSUSPENSIONBRIDGE_SUSPENSIONBRIDGE_TOWER_NORTH_CS_024
  *Elset, elset=ASSEMBLYSUSPENSIONBRIDGE_SUSPENSIONBRIDGE_TOWER_NORTH_CS_025
  *Elset, elset=ASSEMBLYSUSPENSIONBRIDGE_SUSPENSIONBRIDGE_TOWER_NORTH_CS_026
  *Elset, elset=ASSEMBLYSUSPENSIONBRIDGE_SUSPENSIONBRIDGE_TOWER_NORTH_CS_027
  *Elset, elset=ASSEMBLYSUSPENSIONBRIDGE_SUSPENSIONBRIDGE_TOWER_NORTH_CS_028
  *Elset, elset=ASSEMBLYSUSPENSIONBRIDGE_SUSPENSIONBRIDGE_TOWER_NORTH_CS_029
  *Elset, elset=ASSEMBLYSUSPENSIONBRIDGE_SUSPENSIONBRIDGE_TOWER_NORTH_CS_030
  *Elset, elset=ASSEMBLYSUSPENSIONBRIDGE_SUSPENSIONBRIDGE_TOWER_NORTH_CS_031
  *Elset, elset=ASSEMBLYSUSPENSIONBRIDGE_SUSPENSIONBRIDGE_TOWER_NORTH_CS_032
  *Elset, elset=ASSEMBLYSUSPENSIONBRIDGE_SUSPENSIONBRIDGE_TOWER_NORTH_CS_033
  *Elset, elset=ASSEMBLYSUSPENSIONBRIDGE_SUSPENSIONBRIDGE_TOWER_NORTH_CS_034
  *Elset, elset=ASSEMBLYSUSPENSIONBRIDGE_SUSPENSIONBRIDGE_TOWER_NORTH_CS_035
  *Elset, elset=ASSEMBLYSUSPENSIONBRIDGE_SUSPENSIONBRIDGE_TOWER_NORTH_CS_036
  *Elset, elset=ASSEMBLYSUSPENSIONBRIDGE_SUSPENSIONBRIDGE_TOWER_NORTH_CS_037
  *Elset, elset=ASSEMBLYSUSPENSIONBRIDGE_SUSPENSIONBRIDGE_TOWER_NORTH_CS_038
  *Elset, elset=ASSEMBLYSUSPENSIONBRIDGE_SUSPENSIONBRIDGE_TOWER_NORTH_CS_039
  *Elset, elset=ASSEMBLYSUSPENSIONBRIDGE_SUSPENSIONBRIDGE_TOWER_NORTH_CS_040
  *Elset, elset=ASSEMBLYSUSPENSIONBRIDGE_SUSPENSIONBRIDGE_TOWER_NORTH_CS_041
  *Elset, elset=ASSEMBLYSUSPENSIONBRIDGE_SUSPENSIONBRIDGE_TOWER_NORTH_CS_042
  *Elset, elset=ASSEMBLYSUSPENSIONBRIDGE_SUSPENSIONBRIDGE_TOWER_SOUTH_CS_001
  *Elset, elset=ASSEMBLYSUSPENSIONBRIDGE_SUSPENSIONBRIDGE_TOWER_SOUTH_CS_002
  *Elset, elset=ASSEMBLYSUSPENSIONBRIDGE_SUSPENSIONBRIDGE_TOWER_SOUTH_CS_003
  *Elset, elset=ASSEMBLYSUSPENSIONBRIDGE_SUSPENSIONBRIDGE_TOWER_SOUTH_CS_004
  *Elset, elset=ASSEMBLYSUSPENSIONBRIDGE_SUSPENSIONBRIDGE_TOWER_SOUTH_CS_005
  *Elset, elset=ASSEMBLYSUSPENSIONBRIDGE_SUSPENSIONBRIDGE_TOWER_SOUTH_CS_006
  *Elset, elset=ASSEMBLYSUSPENSIONBRIDGE_SUSPENSIONBRIDGE_TOWER_SOUTH_CS_007
  *Elset, elset=ASSEMBLYSUSPENSIONBRIDGE_SUSPENSIONBRIDGE_TOWER_SOUTH_CS_008
  *Elset, elset=ASSEMBLYSUSPENSIONBRIDGE_SUSPENSIONBRIDGE_TOWER_SOUTH_CS_009
  *Elset, elset=ASSEMBLYSUSPENSIONBRIDGE_SUSPENSIONBRIDGE_TOWER_SOUTH_CS_010
  *Elset, elset=ASSEMBLYSUSPENSIONBRIDGE_SUSPENSIONBRIDGE_TOWER_SOUTH_CS_011
  *Elset, elset=ASSEMBLYSUSPENSIONBRIDGE_SUSPENSIONBRIDGE_TOWER_SOUTH_CS_012
  *Elset, elset=ASSEMBLYSUSPENSIONBRIDGE_SUSPENSIONBRIDGE_TOWER_SOUTH_CS_013
  *Elset, elset=ASSEMBLYSUSPENSIONBRIDGE_SUSPENSIONBRIDGE_TOWER_SOUTH_CS_014
  *Elset, elset=ASSEMBLYSUSPENSIONBRIDGE_SUSPENSIONBRIDGE_TOWER_SOUTH_CS_015
  *Elset, elset=ASSEMBLYSUSPENSIONBRIDGE_SUSPENSIONBRIDGE_TOWER_SOUTH_CS_016
  *Elset, elset=ASSEMBLYSUSPENSIONBRIDGE_SUSPENSIONBRIDGE_TOWER_SOUTH_CS_017
  *Elset, elset=ASSEMBLYSUSPENSIONBRIDGE_SUSPENSIONBRIDGE_TOWER_SOUTH_CS_018
  *Elset, elset=ASSEMBLYSUSPENSIONBRIDGE_SUSPENSIONBRIDGE_TOWER_SOUTH_CS_019
  *Elset, elset=ASSEMBLYSUSPENSIONBRIDGE_SUSPENSIONBRIDGE_TOWER_SOUTH_CS_020
  *Elset, elset=ASSEMBLYSUSPENSIONBRIDGE_SUSPENSIONBRIDGE_TOWER_SOUTH_CS_021
  *Elset, elset=ASSEMBLYSUSPENSIONBRIDGE_SUSPENSIONBRIDGE_TOWER_SOUTH_CS_022
  *Elset, elset=ASSEMBLYSUSPENSIONBRIDGE_SUSPENSIONBRIDGE_TOWER_SOUTH_CS_023
  *Elset, elset=ASSEMBLYSUSPENSIONBRIDGE_SUSPENSIONBRIDGE_TOWER_SOUTH_CS_024
  *Elset, elset=ASSEMBLYSUSPENSIONBRIDGE_SUSPENSIONBRIDGE_TOWER_SOUTH_CS_025
  *Elset, elset=ASSEMBLYSUSPENSIONBRIDGE_SUSPENSIONBRIDGE_TOWER_SOUTH_CS_026
  *Elset, elset=ASSEMBLYSUSPENSIONBRIDGE_SUSPENSIONBRIDGE_TOWER_SOUTH_CS_027
  *Elset, elset=ASSEMBLYSUSPENSIONBRIDGE_SUSPENSIONBRIDGE_TOWER_SOUTH_CS_028
  *Elset, elset=ASSEMBLYSUSPENSIONBRIDGE_SUSPENSIONBRIDGE_TOWER_SOUTH_CS_029
  *Elset, elset=ASSEMBLYSUSPENSIONBRIDGE_SUSPENSIONBRIDGE_TOWER_SOUTH_CS_030
  *Elset, elset=ASSEMBLYSUSPENSIONBRIDGE_SUSPENSIONBRIDGE_TOWER_SOUTH_CS_031
  *Elset, elset=ASSEMBLYSUSPENSIONBRIDGE_SUSPENSIONBRIDGE_TOWER_SOUTH_CS_032
  *Elset, elset=ASSEMBLYSUSPENSIONBRIDGE_SUSPENSIONBRIDGE_TOWER_SOUTH_CS_033
  *Elset, elset=ASSEMBLYSUSPENSIONBRIDGE_SUSPENSIONBRIDGE_TOWER_SOUTH_CS_034
  *Elset, elset=ASSEMBLYSUSPENSIONBRIDGE_SUSPENSIONBRIDGE_TOWER_SOUTH_CS_035
  *Elset, elset=ASSEMBLYSUSPENSIONBRIDGE_SUSPENSIONBRIDGE_TOWER_SOUTH_CS_036
  *Elset, elset=ASSEMBLYSUSPENSIONBRIDGE_SUSPENSIONBRIDGE_TOWER_SOUTH_CS_037
  *Elset, elset=ASSEMBLYSUSPENSIONBRIDGE_SUSPENSIONBRIDGE_TOWER_SOUTH_CS_038
  *Elset, elset=ASSEMBLYSUSPENSIONBRIDGE_SUSPENSIONBRIDGE_TOWER_SOUTH_CS_039
  *Elset, elset=ASSEMBLYSUSPENSIONBRIDGE_SUSPENSIONBRIDGE_TOWER_SOUTH_CS_040
  *Elset, elset=ASSEMBLYSUSPENSIONBRIDGE_SUSPENSIONBRIDGE_TOWER_SOUTH_CS_041
  *Elset, elset=ASSEMBLYSUSPENSIONBRIDGE_SUSPENSIONBRIDGE_TOWER_SOUTH_CS_042
  *material, name=CONCRETE
  *elastic
  *density
  *material, name=SOFT
  *elastic
  *density
  *material, name=STEEL
  *elastic
  *density
  *beamgeneralsection, elset=ASSEMBLYSUSPENSIONBRIDGE_SUSPENSIONBRIDGE_CABLE_MAIN, density=7850, section=GENERAL
  *beamgeneralsection, elset=ASSEMBLYSUSPENSIONBRIDGE_SUSPENSIONBRIDGE_CABLE_TEMPSUPPORT, density=0, section=GENERAL
  *beamgeneralsection, elset=ASSEMBLYSUSPENSIONBRIDGE_SUSPENSIONBRIDGE_LATCONNOUTER, density=0, section=GENERAL
  *beamgeneralsection, elset=ASSEMBLYSUSPENSIONBRIDGE_SUSPENSIONBRIDGE_BRIDGEDECK_COG, density=0, section=GENERAL
  *beamgeneralsection, elset=ASSEMBLYSUSPENSIONBRIDGE_SUSPENSIONBRIDGE_HANGER, density=7850, section=GENERAL
  *beamgeneralsection, elset=ASSEMBLYSUSPENSIONBRIDGE_SUSPENSIONBRIDGE_BEARINGTOP, density=0, section=GENERAL
  *beamgeneralsection, elset=ASSEMBLYSUSPENSIONBRIDGE_SUSPENSIONBRIDGE_BEARINGLOW, density=0, section=GENERAL
  *spring, elset=ASSEMBLYSUSPENSIONBRIDGE_SUSPENSIONBRIDGE_SADLESPRING_X
  *spring, elset=ASSEMBLYSUSPENSIONBRIDGE_SUSPENSIONBRIDGE_SADLESPRING_Y
  *spring, elset=ASSEMBLYSUSPENSIONBRIDGE_SUSPENSIONBRIDGE_SADLESPRING_Z
  *spring, elset=ASSEMBLYSUSPENSIONBRIDGE_SUSPENSIONBRIDGE_BEARINGSPRING1_SOUTH_X
  *spring, elset=ASSEMBLYSUSPENSIONBRIDGE_SUSPENSIONBRIDGE_BEARINGSPRING1_SOUTH_Y
  *spring, elset=ASSEMBLYSUSPENSIONBRIDGE_SUSPENSIONBRIDGE_BEARINGSPRING1_SOUTH_Z
  *spring, elset=ASSEMBLYSUSPENSIONBRIDGE_SUSPENSIONBRIDGE_BEARINGSPRING1_SOUTH_RX
  *spring, elset=ASSEMBLYSUSPENSIONBRIDGE_SUSPENSIONBRIDGE_BEARINGSPRING1_SOUTH_RY
  *spring, elset=ASSEMBLYSUSPENSIONBRIDGE_SUSPENSIONBRIDGE_BEARINGSPRING1_SOUTH_RZ
  *spring, elset=ASSEMBLYSUSPENSIONBRIDGE_SUSPENSIONBRIDGE_BEARINGSPRING1_NORTH_X
  *spring, elset=ASSEMBLYSUSPENSIONBRIDGE_SUSPENSIONBRIDGE_BEARINGSPRING1_NORTH_Y
  *spring, elset=ASSEMBLYSUSPENSIONBRIDGE_SUSPENSIONBRIDGE_BEARINGSPRING1_NORTH_Z
  *spring, elset=ASSEMBLYSUSPENSIONBRIDGE_SUSPENSIONBRIDGE_BEARINGSPRING1_NORTH_RX
  *spring, elset=ASSEMBLYSUSPENSIONBRIDGE_SUSPENSIONBRIDGE_BEARINGSPRING1_NORTH_RY
  *spring, elset=ASSEMBLYSUSPENSIONBRIDGE_SUSPENSIONBRIDGE_BEARINGSPRING1_NORTH_RZ
  *shellsection, elset=ASSEMBLYSUSPENSIONBRIDGE_SUSPENSIONBRIDGE_BRIDGEDECK_SHELL, material=SOFT, offset=SNEG
  *beamsection, elset=ASSEMBLYSUSPENSIONBRIDGE_SUSPENSIONBRIDGE_TOWER_SOUTH_CS_001, material=CONCRETE, section=BOX

 ***WARNING: ONE OR MORE THICKNESS OF THE BOX SECTION IS GREATER THAN 0.1 OF 
             THE CROSS SECTION DIMENSION. THE TORSIONAL RIGIDITY MAY NOT BE 
             EVALUATED ACCURATELY SINCE THE CALCULATION IS BASED ON THE 
             ASSUMPTION THAT THE WALL THICKNESS IS MUCH SMALL IN COMPARISON TO 
             THE CROSS SECTION DIMENSION
  *beamsection, elset=ASSEMBLYSUSPENSIONBRIDGE_SUSPENSIONBRIDGE_TOWER_NORTH_CS_001, material=CONCRETE, section=BOX

 ***WARNING: ONE OR MORE THICKNESS OF THE BOX SECTION IS GREATER THAN 0.1 OF 
             THE CROSS SECTION DIMENSION. THE TORSIONAL RIGIDITY MAY NOT BE 
             EVALUATED ACCURATELY SINCE THE CALCULATION IS BASED ON THE 
             ASSUMPTION THAT THE WALL THICKNESS IS MUCH SMALL IN COMPARISON TO 
             THE CROSS SECTION DIMENSION
  *beamsection, elset=ASSEMBLYSUSPENSIONBRIDGE_SUSPENSIONBRIDGE_TOWER_SOUTH_CS_002, material=CONCRETE, section=BOX

 ***WARNING: ONE OR MORE THICKNESS OF THE BOX SECTION IS GREATER THAN 0.1 OF 
             THE CROSS SECTION DIMENSION. THE TORSIONAL RIGIDITY MAY NOT BE 
             EVALUATED ACCURATELY SINCE THE CALCULATION IS BASED ON THE 
             ASSUMPTION THAT THE WALL THICKNESS IS MUCH SMALL IN COMPARISON TO 
             THE CROSS SECTION DIMENSION
  *beamsection, elset=ASSEMBLYSUSPENSIONBRIDGE_SUSPENSIONBRIDGE_TOWER_NORTH_CS_002, material=CONCRETE, section=BOX

 ***WARNING: ONE OR MORE THICKNESS OF THE BOX SECTION IS GREATER THAN 0.1 OF 
             THE CROSS SECTION DIMENSION. THE TORSIONAL RIGIDITY MAY NOT BE 
             EVALUATED ACCURATELY SINCE THE CALCULATION IS BASED ON THE 
             ASSUMPTION THAT THE WALL THICKNESS IS MUCH SMALL IN COMPARISON TO 
             THE CROSS SECTION DIMENSION
  *beamsection, elset=ASSEMBLYSUSPENSIONBRIDGE_SUSPENSIONBRIDGE_TOWER_SOUTH_CS_003, material=CONCRETE, section=BOX

 ***WARNING: ONE OR MORE THICKNESS OF THE BOX SECTION IS GREATER THAN 0.1 OF 
             THE CROSS SECTION DIMENSION. THE TORSIONAL RIGIDITY MAY NOT BE 
             EVALUATED ACCURATELY SINCE THE CALCULATION IS BASED ON THE 
             ASSUMPTION THAT THE WALL THICKNESS IS MUCH SMALL IN COMPARISON TO 
             THE CROSS SECTION DIMENSION
  *beamsection, elset=ASSEMBLYSUSPENSIONBRIDGE_SUSPENSIONBRIDGE_TOWER_NORTH_CS_003, material=CONCRETE, section=BOX

 ***WARNING: ONE OR MORE THICKNESS OF THE BOX SECTION IS GREATER THAN 0.1 OF 
             THE CROSS SECTION DIMENSION. THE TORSIONAL RIGIDITY MAY NOT BE 
             EVALUATED ACCURATELY SINCE THE CALCULATION IS BASED ON THE 
             ASSUMPTION THAT THE WALL THICKNESS IS MUCH SMALL IN COMPARISON TO 
             THE CROSS SECTION DIMENSION
  *beamsection, elset=ASSEMBLYSUSPENSIONBRIDGE_SUSPENSIONBRIDGE_TOWER_SOUTH_CS_004, material=CONCRETE, section=BOX

 ***WARNING: ONE OR MORE THICKNESS OF THE BOX SECTION IS GREATER THAN 0.1 OF 
             THE CROSS SECTION DIMENSION. THE TORSIONAL RIGIDITY MAY NOT BE 
             EVALUATED ACCURATELY SINCE THE CALCULATION IS BASED ON THE 
             ASSUMPTION THAT THE WALL THICKNESS IS MUCH SMALL IN COMPARISON TO 
             THE CROSS SECTION DIMENSION
  *beamsection, elset=ASSEMBLYSUSPENSIONBRIDGE_SUSPENSIONBRIDGE_TOWER_NORTH_CS_004, material=CONCRETE, section=BOX

 ***WARNING: ONE OR MORE THICKNESS OF THE BOX SECTION IS GREATER THAN 0.1 OF 
             THE CROSS SECTION DIMENSION. THE TORSIONAL RIGIDITY MAY NOT BE 
             EVALUATED ACCURATELY SINCE THE CALCULATION IS BASED ON THE 
             ASSUMPTION THAT THE WALL THICKNESS IS MUCH SMALL IN COMPARISON TO 
             THE CROSS SECTION DIMENSION
  *beamsection, elset=ASSEMBLYSUSPENSIONBRIDGE_SUSPENSIONBRIDGE_TOWER_SOUTH_CS_005, material=CONCRETE, section=BOX

 ***WARNING: ONE OR MORE THICKNESS OF THE BOX SECTION IS GREATER THAN 0.1 OF 
             THE CROSS SECTION DIMENSION. THE TORSIONAL RIGIDITY MAY NOT BE 
             EVALUATED ACCURATELY SINCE THE CALCULATION IS BASED ON THE 
             ASSUMPTION THAT THE WALL THICKNESS IS MUCH SMALL IN COMPARISON TO 
             THE CROSS SECTION DIMENSION
  *beamsection, elset=ASSEMBLYSUSPENSIONBRIDGE_SUSPENSIONBRIDGE_TOWER_NORTH_CS_005, material=CONCRETE, section=BOX

 ***WARNING: ONE OR MORE THICKNESS OF THE BOX SECTION IS GREATER THAN 0.1 OF 
             THE CROSS SECTION DIMENSION. THE TORSIONAL RIGIDITY MAY NOT BE 
             EVALUATED ACCURATELY SINCE THE CALCULATION IS BASED ON THE 
             ASSUMPTION THAT THE WALL THICKNESS IS MUCH SMALL IN COMPARISON TO 
             THE CROSS SECTION DIMENSION
  *beamsection, elset=ASSEMBLYSUSPENSIONBRIDGE_SUSPENSIONBRIDGE_TOWER_SOUTH_CS_006, material=CONCRETE, section=BOX

 ***WARNING: ONE OR MORE THICKNESS OF THE BOX SECTION IS GREATER THAN 0.1 OF 
             THE CROSS SECTION DIMENSION. THE TORSIONAL RIGIDITY MAY NOT BE 
             EVALUATED ACCURATELY SINCE THE CALCULATION IS BASED ON THE 
             ASSUMPTION THAT THE WALL THICKNESS IS MUCH SMALL IN COMPARISON TO 
             THE CROSS SECTION DIMENSION
  *beamsection, elset=ASSEMBLYSUSPENSIONBRIDGE_SUSPENSIONBRIDGE_TOWER_NORTH_CS_006, material=CONCRETE, section=BOX

 ***WARNING: ONE OR MORE THICKNESS OF THE BOX SECTION IS GREATER THAN 0.1 OF 
             THE CROSS SECTION DIMENSION. THE TORSIONAL RIGIDITY MAY NOT BE 
             EVALUATED ACCURATELY SINCE THE CALCULATION IS BASED ON THE 
             ASSUMPTION THAT THE WALL THICKNESS IS MUCH SMALL IN COMPARISON TO 
             THE CROSS SECTION DIMENSION
  *beamsection, elset=ASSEMBLYSUSPENSIONBRIDGE_SUSPENSIONBRIDGE_TOWER_SOUTH_CS_007, material=CONCRETE, section=BOX

 ***WARNING: ONE OR MORE THICKNESS OF THE BOX SECTION IS GREATER THAN 0.1 OF 
             THE CROSS SECTION DIMENSION. THE TORSIONAL RIGIDITY MAY NOT BE 
             EVALUATED ACCURATELY SINCE THE CALCULATION IS BASED ON THE 
             ASSUMPTION THAT THE WALL THICKNESS IS MUCH SMALL IN COMPARISON TO 
             THE CROSS SECTION DIMENSION
  *beamsection, elset=ASSEMBLYSUSPENSIONBRIDGE_SUSPENSIONBRIDGE_TOWER_NORTH_CS_007, material=CONCRETE, section=BOX

 ***WARNING: ONE OR MORE THICKNESS OF THE BOX SECTION IS GREATER THAN 0.1 OF 
             THE CROSS SECTION DIMENSION. THE TORSIONAL RIGIDITY MAY NOT BE 
             EVALUATED ACCURATELY SINCE THE CALCULATION IS BASED ON THE 
             ASSUMPTION THAT THE WALL THICKNESS IS MUCH SMALL IN COMPARISON TO 
             THE CROSS SECTION DIMENSION
  *beamsection, elset=ASSEMBLYSUSPENSIONBRIDGE_SUSPENSIONBRIDGE_TOWER_SOUTH_CS_008, material=CONCRETE, section=BOX

 ***WARNING: ONE OR MORE THICKNESS OF THE BOX SECTION IS GREATER THAN 0.1 OF 
             THE CROSS SECTION DIMENSION. THE TORSIONAL RIGIDITY MAY NOT BE 
             EVALUATED ACCURATELY SINCE THE CALCULATION IS BASED ON THE 
             ASSUMPTION THAT THE WALL THICKNESS IS MUCH SMALL IN COMPARISON TO 
             THE CROSS SECTION DIMENSION
  *beamsection, elset=ASSEMBLYSUSPENSIONBRIDGE_SUSPENSIONBRIDGE_TOWER_NORTH_CS_008, material=CONCRETE, section=BOX

 ***WARNING: ONE OR MORE THICKNESS OF THE BOX SECTION IS GREATER THAN 0.1 OF 
             THE CROSS SECTION DIMENSION. THE TORSIONAL RIGIDITY MAY NOT BE 
             EVALUATED ACCURATELY SINCE THE CALCULATION IS BASED ON THE 
             ASSUMPTION THAT THE WALL THICKNESS IS MUCH SMALL IN COMPARISON TO 
             THE CROSS SECTION DIMENSION
  *beamsection, elset=ASSEMBLYSUSPENSIONBRIDGE_SUSPENSIONBRIDGE_TOWER_SOUTH_CS_009, material=CONCRETE, section=BOX

 ***WARNING: ONE OR MORE THICKNESS OF THE BOX SECTION IS GREATER THAN 0.1 OF 
             THE CROSS SECTION DIMENSION. THE TORSIONAL RIGIDITY MAY NOT BE 
             EVALUATED ACCURATELY SINCE THE CALCULATION IS BASED ON THE 
             ASSUMPTION THAT THE WALL THICKNESS IS MUCH SMALL IN COMPARISON TO 
             THE CROSS SECTION DIMENSION
  *beamsection, elset=ASSEMBLYSUSPENSIONBRIDGE_SUSPENSIONBRIDGE_TOWER_NORTH_CS_009, material=CONCRETE, section=BOX

 ***WARNING: ONE OR MORE THICKNESS OF THE BOX SECTION IS GREATER THAN 0.1 OF 
             THE CROSS SECTION DIMENSION. THE TORSIONAL RIGIDITY MAY NOT BE 
             EVALUATED ACCURATELY SINCE THE CALCULATION IS BASED ON THE 
             ASSUMPTION THAT THE WALL THICKNESS IS MUCH SMALL IN COMPARISON TO 
             THE CROSS SECTION DIMENSION
  *beamsection, elset=ASSEMBLYSUSPENSIONBRIDGE_SUSPENSIONBRIDGE_TOWER_SOUTH_CS_010, material=CONCRETE, section=BOX

 ***WARNING: ONE OR MORE THICKNESS OF THE BOX SECTION IS GREATER THAN 0.1 OF 
             THE CROSS SECTION DIMENSION. THE TORSIONAL RIGIDITY MAY NOT BE 
             EVALUATED ACCURATELY SINCE THE CALCULATION IS BASED ON THE 
             ASSUMPTION THAT THE WALL THICKNESS IS MUCH SMALL IN COMPARISON TO 
             THE CROSS SECTION DIMENSION
  *beamsection, elset=ASSEMBLYSUSPENSIONBRIDGE_SUSPENSIONBRIDGE_TOWER_NORTH_CS_010, material=CONCRETE, section=BOX

 ***WARNING: ONE OR MORE THICKNESS OF THE BOX SECTION IS GREATER THAN 0.1 OF 
             THE CROSS SECTION DIMENSION. THE TORSIONAL RIGIDITY MAY NOT BE 
             EVALUATED ACCURATELY SINCE THE CALCULATION IS BASED ON THE 
             ASSUMPTION THAT THE WALL THICKNESS IS MUCH SMALL IN COMPARISON TO 
             THE CROSS SECTION DIMENSION
  *beamsection, elset=ASSEMBLYSUSPENSIONBRIDGE_SUSPENSIONBRIDGE_TOWER_SOUTH_CS_011, material=CONCRETE, section=BOX

 ***WARNING: ONE OR MORE THICKNESS OF THE BOX SECTION IS GREATER THAN 0.1 OF 
             THE CROSS SECTION DIMENSION. THE TORSIONAL RIGIDITY MAY NOT BE 
             EVALUATED ACCURATELY SINCE THE CALCULATION IS BASED ON THE 
             ASSUMPTION THAT THE WALL THICKNESS IS MUCH SMALL IN COMPARISON TO 
             THE CROSS SECTION DIMENSION
  *beamsection, elset=ASSEMBLYSUSPENSIONBRIDGE_SUSPENSIONBRIDGE_TOWER_NORTH_CS_011, material=CONCRETE, section=BOX

 ***WARNING: ONE OR MORE THICKNESS OF THE BOX SECTION IS GREATER THAN 0.1 OF 
             THE CROSS SECTION DIMENSION. THE TORSIONAL RIGIDITY MAY NOT BE 
             EVALUATED ACCURATELY SINCE THE CALCULATION IS BASED ON THE 
             ASSUMPTION THAT THE WALL THICKNESS IS MUCH SMALL IN COMPARISON TO 
             THE CROSS SECTION DIMENSION
  *beamsection, elset=ASSEMBLYSUSPENSIONBRIDGE_SUSPENSIONBRIDGE_TOWER_SOUTH_CS_012, material=CONCRETE, section=BOX

 ***WARNING: ONE OR MORE THICKNESS OF THE BOX SECTION IS GREATER THAN 0.1 OF 
             THE CROSS SECTION DIMENSION. THE TORSIONAL RIGIDITY MAY NOT BE 
             EVALUATED ACCURATELY SINCE THE CALCULATION IS BASED ON THE 
             ASSUMPTION THAT THE WALL THICKNESS IS MUCH SMALL IN COMPARISON TO 
             THE CROSS SECTION DIMENSION
  *beamsection, elset=ASSEMBLYSUSPENSIONBRIDGE_SUSPENSIONBRIDGE_TOWER_NORTH_CS_012, material=CONCRETE, section=BOX

 ***WARNING: ONE OR MORE THICKNESS OF THE BOX SECTION IS GREATER THAN 0.1 OF 
             THE CROSS SECTION DIMENSION. THE TORSIONAL RIGIDITY MAY NOT BE 
             EVALUATED ACCURATELY SINCE THE CALCULATION IS BASED ON THE 
             ASSUMPTION THAT THE WALL THICKNESS IS MUCH SMALL IN COMPARISON TO 
             THE CROSS SECTION DIMENSION
  *beamsection, elset=ASSEMBLYSUSPENSIONBRIDGE_SUSPENSIONBRIDGE_TOWER_SOUTH_CS_013, material=CONCRETE, section=BOX

 ***WARNING: ONE OR MORE THICKNESS OF THE BOX SECTION IS GREATER THAN 0.1 OF 
             THE CROSS SECTION DIMENSION. THE TORSIONAL RIGIDITY MAY NOT BE 
             EVALUATED ACCURATELY SINCE THE CALCULATION IS BASED ON THE 
             ASSUMPTION THAT THE WALL THICKNESS IS MUCH SMALL IN COMPARISON TO 
             THE CROSS SECTION DIMENSION
  *beamsection, elset=ASSEMBLYSUSPENSIONBRIDGE_SUSPENSIONBRIDGE_TOWER_NORTH_CS_013, material=CONCRETE, section=BOX

 ***WARNING: ONE OR MORE THICKNESS OF THE BOX SECTION IS GREATER THAN 0.1 OF 
             THE CROSS SECTION DIMENSION. THE TORSIONAL RIGIDITY MAY NOT BE 
             EVALUATED ACCURATELY SINCE THE CALCULATION IS BASED ON THE 
             ASSUMPTION THAT THE WALL THICKNESS IS MUCH SMALL IN COMPARISON TO 
             THE CROSS SECTION DIMENSION
  *beamsection, elset=ASSEMBLYSUSPENSIONBRIDGE_SUSPENSIONBRIDGE_TOWER_SOUTH_CS_014, material=CONCRETE, section=BOX

 ***WARNING: ONE OR MORE THICKNESS OF THE BOX SECTION IS GREATER THAN 0.1 OF 
             THE CROSS SECTION DIMENSION. THE TORSIONAL RIGIDITY MAY NOT BE 
             EVALUATED ACCURATELY SINCE THE CALCULATION IS BASED ON THE 
             ASSUMPTION THAT THE WALL THICKNESS IS MUCH SMALL IN COMPARISON TO 
             THE CROSS SECTION DIMENSION
  *beamsection, elset=ASSEMBLYSUSPENSIONBRIDGE_SUSPENSIONBRIDGE_TOWER_NORTH_CS_014, material=CONCRETE, section=BOX

 ***WARNING: ONE OR MORE THICKNESS OF THE BOX SECTION IS GREATER THAN 0.1 OF 
             THE CROSS SECTION DIMENSION. THE TORSIONAL RIGIDITY MAY NOT BE 
             EVALUATED ACCURATELY SINCE THE CALCULATION IS BASED ON THE 
             ASSUMPTION THAT THE WALL THICKNESS IS MUCH SMALL IN COMPARISON TO 
             THE CROSS SECTION DIMENSION
  *beamsection, elset=ASSEMBLYSUSPENSIONBRIDGE_SUSPENSIONBRIDGE_TOWER_SOUTH_CS_015, material=CONCRETE, section=BOX

 ***WARNING: ONE OR MORE THICKNESS OF THE BOX SECTION IS GREATER THAN 0.1 OF 
             THE CROSS SECTION DIMENSION. THE TORSIONAL RIGIDITY MAY NOT BE 
             EVALUATED ACCURATELY SINCE THE CALCULATION IS BASED ON THE 
             ASSUMPTION THAT THE WALL THICKNESS IS MUCH SMALL IN COMPARISON TO 
             THE CROSS SECTION DIMENSION
  *beamsection, elset=ASSEMBLYSUSPENSIONBRIDGE_SUSPENSIONBRIDGE_TOWER_NORTH_CS_015, material=CONCRETE, section=BOX

 ***WARNING: ONE OR MORE THICKNESS OF THE BOX SECTION IS GREATER THAN 0.1 OF 
             THE CROSS SECTION DIMENSION. THE TORSIONAL RIGIDITY MAY NOT BE 
             EVALUATED ACCURATELY SINCE THE CALCULATION IS BASED ON THE 
             ASSUMPTION THAT THE WALL THICKNESS IS MUCH SMALL IN COMPARISON TO 
             THE CROSS SECTION DIMENSION
  *beamsection, elset=ASSEMBLYSUSPENSIONBRIDGE_SUSPENSIONBRIDGE_TOWER_SOUTH_CS_016, material=CONCRETE, section=BOX

 ***WARNING: ONE OR MORE THICKNESS OF THE BOX SECTION IS GREATER THAN 0.1 OF 
             THE CROSS SECTION DIMENSION. THE TORSIONAL RIGIDITY MAY NOT BE 
             EVALUATED ACCURATELY SINCE THE CALCULATION IS BASED ON THE 
             ASSUMPTION THAT THE WALL THICKNESS IS MUCH SMALL IN COMPARISON TO 
             THE CROSS SECTION DIMENSION
  *beamsection, elset=ASSEMBLYSUSPENSIONBRIDGE_SUSPENSIONBRIDGE_TOWER_NORTH_CS_016, material=CONCRETE, section=BOX

 ***WARNING: ONE OR MORE THICKNESS OF THE BOX SECTION IS GREATER THAN 0.1 OF 
             THE CROSS SECTION DIMENSION. THE TORSIONAL RIGIDITY MAY NOT BE 
             EVALUATED ACCURATELY SINCE THE CALCULATION IS BASED ON THE 
             ASSUMPTION THAT THE WALL THICKNESS IS MUCH SMALL IN COMPARISON TO 
             THE CROSS SECTION DIMENSION
  *beamsection, elset=ASSEMBLYSUSPENSIONBRIDGE_SUSPENSIONBRIDGE_TOWER_SOUTH_CS_017, material=CONCRETE, section=BOX

 ***WARNING: ONE OR MORE THICKNESS OF THE BOX SECTION IS GREATER THAN 0.1 OF 
             THE CROSS SECTION DIMENSION. THE TORSIONAL RIGIDITY MAY NOT BE 
             EVALUATED ACCURATELY SINCE THE CALCULATION IS BASED ON THE 
             ASSUMPTION THAT THE WALL THICKNESS IS MUCH SMALL IN COMPARISON TO 
             THE CROSS SECTION DIMENSION
  *beamsection, elset=ASSEMBLYSUSPENSIONBRIDGE_SUSPENSIONBRIDGE_TOWER_NORTH_CS_017, material=CONCRETE, section=BOX

 ***WARNING: ONE OR MORE THICKNESS OF THE BOX SECTION IS GREATER THAN 0.1 OF 
             THE CROSS SECTION DIMENSION. THE TORSIONAL RIGIDITY MAY NOT BE 
             EVALUATED ACCURATELY SINCE THE CALCULATION IS BASED ON THE 
             ASSUMPTION THAT THE WALL THICKNESS IS MUCH SMALL IN COMPARISON TO 
             THE CROSS SECTION DIMENSION
  *beamsection, elset=ASSEMBLYSUSPENSIONBRIDGE_SUSPENSIONBRIDGE_TOWER_SOUTH_CS_018, material=CONCRETE, section=BOX

 ***WARNING: ONE OR MORE THICKNESS OF THE BOX SECTION IS GREATER THAN 0.1 OF 
             THE CROSS SECTION DIMENSION. THE TORSIONAL RIGIDITY MAY NOT BE 
             EVALUATED ACCURATELY SINCE THE CALCULATION IS BASED ON THE 
             ASSUMPTION THAT THE WALL THICKNESS IS MUCH SMALL IN COMPARISON TO 
             THE CROSS SECTION DIMENSION
  *beamsection, elset=ASSEMBLYSUSPENSIONBRIDGE_SUSPENSIONBRIDGE_TOWER_NORTH_CS_018, material=CONCRETE, section=BOX

 ***WARNING: ONE OR MORE THICKNESS OF THE BOX SECTION IS GREATER THAN 0.1 OF 
             THE CROSS SECTION DIMENSION. THE TORSIONAL RIGIDITY MAY NOT BE 
             EVALUATED ACCURATELY SINCE THE CALCULATION IS BASED ON THE 
             ASSUMPTION THAT THE WALL THICKNESS IS MUCH SMALL IN COMPARISON TO 
             THE CROSS SECTION DIMENSION
  *beamsection, elset=ASSEMBLYSUSPENSIONBRIDGE_SUSPENSIONBRIDGE_TOWER_SOUTH_CS_019, material=CONCRETE, section=BOX

 ***WARNING: ONE OR MORE THICKNESS OF THE BOX SECTION IS GREATER THAN 0.1 OF 
             THE CROSS SECTION DIMENSION. THE TORSIONAL RIGIDITY MAY NOT BE 
             EVALUATED ACCURATELY SINCE THE CALCULATION IS BASED ON THE 
             ASSUMPTION THAT THE WALL THICKNESS IS MUCH SMALL IN COMPARISON TO 
             THE CROSS SECTION DIMENSION
  *beamsection, elset=ASSEMBLYSUSPENSIONBRIDGE_SUSPENSIONBRIDGE_TOWER_NORTH_CS_019, material=CONCRETE, section=BOX

 ***WARNING: ONE OR MORE THICKNESS OF THE BOX SECTION IS GREATER THAN 0.1 OF 
             THE CROSS SECTION DIMENSION. THE TORSIONAL RIGIDITY MAY NOT BE 
             EVALUATED ACCURATELY SINCE THE CALCULATION IS BASED ON THE 
             ASSUMPTION THAT THE WALL THICKNESS IS MUCH SMALL IN COMPARISON TO 
             THE CROSS SECTION DIMENSION
  *beamsection, elset=ASSEMBLYSUSPENSIONBRIDGE_SUSPENSIONBRIDGE_TOWER_SOUTH_CS_020, material=CONCRETE, section=BOX

 ***WARNING: ONE OR MORE THICKNESS OF THE BOX SECTION IS GREATER THAN 0.1 OF 
             THE CROSS SECTION DIMENSION. THE TORSIONAL RIGIDITY MAY NOT BE 
             EVALUATED ACCURATELY SINCE THE CALCULATION IS BASED ON THE 
             ASSUMPTION THAT THE WALL THICKNESS IS MUCH SMALL IN COMPARISON TO 
             THE CROSS SECTION DIMENSION
  *beamsection, elset=ASSEMBLYSUSPENSIONBRIDGE_SUSPENSIONBRIDGE_TOWER_NORTH_CS_020, material=CONCRETE, section=BOX

 ***WARNING: ONE OR MORE THICKNESS OF THE BOX SECTION IS GREATER THAN 0.1 OF 
             THE CROSS SECTION DIMENSION. THE TORSIONAL RIGIDITY MAY NOT BE 
             EVALUATED ACCURATELY SINCE THE CALCULATION IS BASED ON THE 
             ASSUMPTION THAT THE WALL THICKNESS IS MUCH SMALL IN COMPARISON TO 
             THE CROSS SECTION DIMENSION
  *beamsection, elset=ASSEMBLYSUSPENSIONBRIDGE_SUSPENSIONBRIDGE_TOWER_SOUTH_CS_021, material=CONCRETE, section=BOX

 ***WARNING: ONE OR MORE THICKNESS OF THE BOX SECTION IS GREATER THAN 0.1 OF 
             THE CROSS SECTION DIMENSION. THE TORSIONAL RIGIDITY MAY NOT BE 
             EVALUATED ACCURATELY SINCE THE CALCULATION IS BASED ON THE 
             ASSUMPTION THAT THE WALL THICKNESS IS MUCH SMALL IN COMPARISON TO 
             THE CROSS SECTION DIMENSION
  *beamsection, elset=ASSEMBLYSUSPENSIONBRIDGE_SUSPENSIONBRIDGE_TOWER_NORTH_CS_021, material=CONCRETE, section=BOX

 ***WARNING: ONE OR MORE THICKNESS OF THE BOX SECTION IS GREATER THAN 0.1 OF 
             THE CROSS SECTION DIMENSION. THE TORSIONAL RIGIDITY MAY NOT BE 
             EVALUATED ACCURATELY SINCE THE CALCULATION IS BASED ON THE 
             ASSUMPTION THAT THE WALL THICKNESS IS MUCH SMALL IN COMPARISON TO 
             THE CROSS SECTION DIMENSION
  *beamsection, elset=ASSEMBLYSUSPENSIONBRIDGE_SUSPENSIONBRIDGE_TOWER_SOUTH_CS_022, material=CONCRETE, section=BOX

 ***WARNING: ONE OR MORE THICKNESS OF THE BOX SECTION IS GREATER THAN 0.1 OF 
             THE CROSS SECTION DIMENSION. THE TORSIONAL RIGIDITY MAY NOT BE 
             EVALUATED ACCURATELY SINCE THE CALCULATION IS BASED ON THE 
             ASSUMPTION THAT THE WALL THICKNESS IS MUCH SMALL IN COMPARISON TO 
             THE CROSS SECTION DIMENSION
  *beamsection, elset=ASSEMBLYSUSPENSIONBRIDGE_SUSPENSIONBRIDGE_TOWER_NORTH_CS_022, material=CONCRETE, section=BOX

 ***WARNING: ONE OR MORE THICKNESS OF THE BOX SECTION IS GREATER THAN 0.1 OF 
             THE CROSS SECTION DIMENSION. THE TORSIONAL RIGIDITY MAY NOT BE 
             EVALUATED ACCURATELY SINCE THE CALCULATION IS BASED ON THE 
             ASSUMPTION THAT THE WALL THICKNESS IS MUCH SMALL IN COMPARISON TO 
             THE CROSS SECTION DIMENSION
  *beamsection, elset=ASSEMBLYSUSPENSIONBRIDGE_SUSPENSIONBRIDGE_TOWER_SOUTH_CS_023, material=CONCRETE, section=BOX

 ***WARNING: ONE OR MORE THICKNESS OF THE BOX SECTION IS GREATER THAN 0.1 OF 
             THE CROSS SECTION DIMENSION. THE TORSIONAL RIGIDITY MAY NOT BE 
             EVALUATED ACCURATELY SINCE THE CALCULATION IS BASED ON THE 
             ASSUMPTION THAT THE WALL THICKNESS IS MUCH SMALL IN COMPARISON TO 
             THE CROSS SECTION DIMENSION
  *beamsection, elset=ASSEMBLYSUSPENSIONBRIDGE_SUSPENSIONBRIDGE_TOWER_NORTH_CS_023, material=CONCRETE, section=BOX

 ***WARNING: ONE OR MORE THICKNESS OF THE BOX SECTION IS GREATER THAN 0.1 OF 
             THE CROSS SECTION DIMENSION. THE TORSIONAL RIGIDITY MAY NOT BE 
             EVALUATED ACCURATELY SINCE THE CALCULATION IS BASED ON THE 
             ASSUMPTION THAT THE WALL THICKNESS IS MUCH SMALL IN COMPARISON TO 
             THE CROSS SECTION DIMENSION
  *beamsection, elset=ASSEMBLYSUSPENSIONBRIDGE_SUSPENSIONBRIDGE_TOWER_SOUTH_CS_024, material=CONCRETE, section=BOX

 ***WARNING: ONE OR MORE THICKNESS OF THE BOX SECTION IS GREATER THAN 0.1 OF 
             THE CROSS SECTION DIMENSION. THE TORSIONAL RIGIDITY MAY NOT BE 
             EVALUATED ACCURATELY SINCE THE CALCULATION IS BASED ON THE 
             ASSUMPTION THAT THE WALL THICKNESS IS MUCH SMALL IN COMPARISON TO 
             THE CROSS SECTION DIMENSION
  *beamsection, elset=ASSEMBLYSUSPENSIONBRIDGE_SUSPENSIONBRIDGE_TOWER_NORTH_CS_024, material=CONCRETE, section=BOX

 ***WARNING: ONE OR MORE THICKNESS OF THE BOX SECTION IS GREATER THAN 0.1 OF 
             THE CROSS SECTION DIMENSION. THE TORSIONAL RIGIDITY MAY NOT BE 
             EVALUATED ACCURATELY SINCE THE CALCULATION IS BASED ON THE 
             ASSUMPTION THAT THE WALL THICKNESS IS MUCH SMALL IN COMPARISON TO 
             THE CROSS SECTION DIMENSION
  *beamsection, elset=ASSEMBLYSUSPENSIONBRIDGE_SUSPENSIONBRIDGE_TOWER_SOUTH_CS_025, material=CONCRETE, section=BOX

 ***WARNING: ONE OR MORE THICKNESS OF THE BOX SECTION IS GREATER THAN 0.1 OF 
             THE CROSS SECTION DIMENSION. THE TORSIONAL RIGIDITY MAY NOT BE 
             EVALUATED ACCURATELY SINCE THE CALCULATION IS BASED ON THE 
             ASSUMPTION THAT THE WALL THICKNESS IS MUCH SMALL IN COMPARISON TO 
             THE CROSS SECTION DIMENSION
  *beamsection, elset=ASSEMBLYSUSPENSIONBRIDGE_SUSPENSIONBRIDGE_TOWER_NORTH_CS_025, material=CONCRETE, section=BOX

 ***WARNING: ONE OR MORE THICKNESS OF THE BOX SECTION IS GREATER THAN 0.1 OF 
             THE CROSS SECTION DIMENSION. THE TORSIONAL RIGIDITY MAY NOT BE 
             EVALUATED ACCURATELY SINCE THE CALCULATION IS BASED ON THE 
             ASSUMPTION THAT THE WALL THICKNESS IS MUCH SMALL IN COMPARISON TO 
             THE CROSS SECTION DIMENSION
  *beamsection, elset=ASSEMBLYSUSPENSIONBRIDGE_SUSPENSIONBRIDGE_TOWER_SOUTH_CS_026, material=CONCRETE, section=BOX

 ***WARNING: ONE OR MORE THICKNESS OF THE BOX SECTION IS GREATER THAN 0.1 OF 
             THE CROSS SECTION DIMENSION. THE TORSIONAL RIGIDITY MAY NOT BE 
             EVALUATED ACCURATELY SINCE THE CALCULATION IS BASED ON THE 
             ASSUMPTION THAT THE WALL THICKNESS IS MUCH SMALL IN COMPARISON TO 
             THE CROSS SECTION DIMENSION
  *beamsection, elset=ASSEMBLYSUSPENSIONBRIDGE_SUSPENSIONBRIDGE_TOWER_NORTH_CS_026, material=CONCRETE, section=BOX

 ***WARNING: ONE OR MORE THICKNESS OF THE BOX SECTION IS GREATER THAN 0.1 OF 
             THE CROSS SECTION DIMENSION. THE TORSIONAL RIGIDITY MAY NOT BE 
             EVALUATED ACCURATELY SINCE THE CALCULATION IS BASED ON THE 
             ASSUMPTION THAT THE WALL THICKNESS IS MUCH SMALL IN COMPARISON TO 
             THE CROSS SECTION DIMENSION
  *beamsection, elset=ASSEMBLYSUSPENSIONBRIDGE_SUSPENSIONBRIDGE_TOWER_SOUTH_CS_027, material=CONCRETE, section=BOX

 ***WARNING: ONE OR MORE THICKNESS OF THE BOX SECTION IS GREATER THAN 0.1 OF 
             THE CROSS SECTION DIMENSION. THE TORSIONAL RIGIDITY MAY NOT BE 
             EVALUATED ACCURATELY SINCE THE CALCULATION IS BASED ON THE 
             ASSUMPTION THAT THE WALL THICKNESS IS MUCH SMALL IN COMPARISON TO 
             THE CROSS SECTION DIMENSION
  *beamsection, elset=ASSEMBLYSUSPENSIONBRIDGE_SUSPENSIONBRIDGE_TOWER_NORTH_CS_027, material=CONCRETE, section=BOX

 ***WARNING: ONE OR MORE THICKNESS OF THE BOX SECTION IS GREATER THAN 0.1 OF 
             THE CROSS SECTION DIMENSION. THE TORSIONAL RIGIDITY MAY NOT BE 
             EVALUATED ACCURATELY SINCE THE CALCULATION IS BASED ON THE 
             ASSUMPTION THAT THE WALL THICKNESS IS MUCH SMALL IN COMPARISON TO 
             THE CROSS SECTION DIMENSION
  *beamsection, elset=ASSEMBLYSUSPENSIONBRIDGE_SUSPENSIONBRIDGE_TOWER_SOUTH_CS_028, material=CONCRETE, section=BOX

 ***WARNING: ONE OR MORE THICKNESS OF THE BOX SECTION IS GREATER THAN 0.1 OF 
             THE CROSS SECTION DIMENSION. THE TORSIONAL RIGIDITY MAY NOT BE 
             EVALUATED ACCURATELY SINCE THE CALCULATION IS BASED ON THE 
             ASSUMPTION THAT THE WALL THICKNESS IS MUCH SMALL IN COMPARISON TO 
             THE CROSS SECTION DIMENSION
  *beamsection, elset=ASSEMBLYSUSPENSIONBRIDGE_SUSPENSIONBRIDGE_TOWER_NORTH_CS_028, material=CONCRETE, section=BOX

 ***WARNING: ONE OR MORE THICKNESS OF THE BOX SECTION IS GREATER THAN 0.1 OF 
             THE CROSS SECTION DIMENSION. THE TORSIONAL RIGIDITY MAY NOT BE 
             EVALUATED ACCURATELY SINCE THE CALCULATION IS BASED ON THE 
             ASSUMPTION THAT THE WALL THICKNESS IS MUCH SMALL IN COMPARISON TO 
             THE CROSS SECTION DIMENSION
  *beamsection, elset=ASSEMBLYSUSPENSIONBRIDGE_SUSPENSIONBRIDGE_TOWER_SOUTH_CS_029, material=CONCRETE, section=BOX

 ***WARNING: ONE OR MORE THICKNESS OF THE BOX SECTION IS GREATER THAN 0.1 OF 
             THE CROSS SECTION DIMENSION. THE TORSIONAL RIGIDITY MAY NOT BE 
             EVALUATED ACCURATELY SINCE THE CALCULATION IS BASED ON THE 
             ASSUMPTION THAT THE WALL THICKNESS IS MUCH SMALL IN COMPARISON TO 
             THE CROSS SECTION DIMENSION
  *beamsection, elset=ASSEMBLYSUSPENSIONBRIDGE_SUSPENSIONBRIDGE_TOWER_NORTH_CS_029, material=CONCRETE, section=BOX

 ***WARNING: ONE OR MORE THICKNESS OF THE BOX SECTION IS GREATER THAN 0.1 OF 
             THE CROSS SECTION DIMENSION. THE TORSIONAL RIGIDITY MAY NOT BE 
             EVALUATED ACCURATELY SINCE THE CALCULATION IS BASED ON THE 
             ASSUMPTION THAT THE WALL THICKNESS IS MUCH SMALL IN COMPARISON TO 
             THE CROSS SECTION DIMENSION
  *beamsection, elset=ASSEMBLYSUSPENSIONBRIDGE_SUSPENSIONBRIDGE_TOWER_SOUTH_CS_030, material=CONCRETE, section=BOX

 ***WARNING: ONE OR MORE THICKNESS OF THE BOX SECTION IS GREATER THAN 0.1 OF 
             THE CROSS SECTION DIMENSION. THE TORSIONAL RIGIDITY MAY NOT BE 
             EVALUATED ACCURATELY SINCE THE CALCULATION IS BASED ON THE 
             ASSUMPTION THAT THE WALL THICKNESS IS MUCH SMALL IN COMPARISON TO 
             THE CROSS SECTION DIMENSION
  *beamsection, elset=ASSEMBLYSUSPENSIONBRIDGE_SUSPENSIONBRIDGE_TOWER_NORTH_CS_030, material=CONCRETE, section=BOX

 ***WARNING: ONE OR MORE THICKNESS OF THE BOX SECTION IS GREATER THAN 0.1 OF 
             THE CROSS SECTION DIMENSION. THE TORSIONAL RIGIDITY MAY NOT BE 
             EVALUATED ACCURATELY SINCE THE CALCULATION IS BASED ON THE 
             ASSUMPTION THAT THE WALL THICKNESS IS MUCH SMALL IN COMPARISON TO 
             THE CROSS SECTION DIMENSION
  *beamsection, elset=ASSEMBLYSUSPENSIONBRIDGE_SUSPENSIONBRIDGE_TOWER_SOUTH_CS_031, material=CONCRETE, section=BOX

 ***WARNING: ONE OR MORE THICKNESS OF THE BOX SECTION IS GREATER THAN 0.1 OF 
             THE CROSS SECTION DIMENSION. THE TORSIONAL RIGIDITY MAY NOT BE 
             EVALUATED ACCURATELY SINCE THE CALCULATION IS BASED ON THE 
             ASSUMPTION THAT THE WALL THICKNESS IS MUCH SMALL IN COMPARISON TO 
             THE CROSS SECTION DIMENSION
  *beamsection, elset=ASSEMBLYSUSPENSIONBRIDGE_SUSPENSIONBRIDGE_TOWER_NORTH_CS_031, material=CONCRETE, section=BOX

 ***WARNING: ONE OR MORE THICKNESS OF THE BOX SECTION IS GREATER THAN 0.1 OF 
             THE CROSS SECTION DIMENSION. THE TORSIONAL RIGIDITY MAY NOT BE 
             EVALUATED ACCURATELY SINCE THE CALCULATION IS BASED ON THE 
             ASSUMPTION THAT THE WALL THICKNESS IS MUCH SMALL IN COMPARISON TO 
             THE CROSS SECTION DIMENSION
  *beamsection, elset=ASSEMBLYSUSPENSIONBRIDGE_SUSPENSIONBRIDGE_TOWER_SOUTH_CS_032, material=CONCRETE, section=BOX

 ***WARNING: ONE OR MORE THICKNESS OF THE BOX SECTION IS GREATER THAN 0.1 OF 
             THE CROSS SECTION DIMENSION. THE TORSIONAL RIGIDITY MAY NOT BE 
             EVALUATED ACCURATELY SINCE THE CALCULATION IS BASED ON THE 
             ASSUMPTION THAT THE WALL THICKNESS IS MUCH SMALL IN COMPARISON TO 
             THE CROSS SECTION DIMENSION
  *beamsection, elset=ASSEMBLYSUSPENSIONBRIDGE_SUSPENSIONBRIDGE_TOWER_NORTH_CS_032, material=CONCRETE, section=BOX

 ***WARNING: ONE OR MORE THICKNESS OF THE BOX SECTION IS GREATER THAN 0.1 OF 
             THE CROSS SECTION DIMENSION. THE TORSIONAL RIGIDITY MAY NOT BE 
             EVALUATED ACCURATELY SINCE THE CALCULATION IS BASED ON THE 
             ASSUMPTION THAT THE WALL THICKNESS IS MUCH SMALL IN COMPARISON TO 
             THE CROSS SECTION DIMENSION
  *beamsection, elset=ASSEMBLYSUSPENSIONBRIDGE_SUSPENSIONBRIDGE_TOWER_SOUTH_CS_033, material=CONCRETE, section=BOX

 ***WARNING: ONE OR MORE THICKNESS OF THE BOX SECTION IS GREATER THAN 0.1 OF 
             THE CROSS SECTION DIMENSION. THE TORSIONAL RIGIDITY MAY NOT BE 
             EVALUATED ACCURATELY SINCE THE CALCULATION IS BASED ON THE 
             ASSUMPTION THAT THE WALL THICKNESS IS MUCH SMALL IN COMPARISON TO 
             THE CROSS SECTION DIMENSION
  *beamsection, elset=ASSEMBLYSUSPENSIONBRIDGE_SUSPENSIONBRIDGE_TOWER_NORTH_CS_033, material=CONCRETE, section=BOX

 ***WARNING: ONE OR MORE THICKNESS OF THE BOX SECTION IS GREATER THAN 0.1 OF 
             THE CROSS SECTION DIMENSION. THE TORSIONAL RIGIDITY MAY NOT BE 
             EVALUATED ACCURATELY SINCE THE CALCULATION IS BASED ON THE 
             ASSUMPTION THAT THE WALL THICKNESS IS MUCH SMALL IN COMPARISON TO 
             THE CROSS SECTION DIMENSION
  *beamsection, elset=ASSEMBLYSUSPENSIONBRIDGE_SUSPENSIONBRIDGE_TOWER_SOUTH_CS_034, material=CONCRETE, section=BOX

 ***WARNING: ONE OR MORE THICKNESS OF THE BOX SECTION IS GREATER THAN 0.1 OF 
             THE CROSS SECTION DIMENSION. THE TORSIONAL RIGIDITY MAY NOT BE 
             EVALUATED ACCURATELY SINCE THE CALCULATION IS BASED ON THE 
             ASSUMPTION THAT THE WALL THICKNESS IS MUCH SMALL IN COMPARISON TO 
             THE CROSS SECTION DIMENSION
  *beamsection, elset=ASSEMBLYSUSPENSIONBRIDGE_SUSPENSIONBRIDGE_TOWER_NORTH_CS_034, material=CONCRETE, section=BOX

 ***WARNING: ONE OR MORE THICKNESS OF THE BOX SECTION IS GREATER THAN 0.1 OF 
             THE CROSS SECTION DIMENSION. THE TORSIONAL RIGIDITY MAY NOT BE 
             EVALUATED ACCURATELY SINCE THE CALCULATION IS BASED ON THE 
             ASSUMPTION THAT THE WALL THICKNESS IS MUCH SMALL IN COMPARISON TO 
             THE CROSS SECTION DIMENSION
  *beamsection, elset=ASSEMBLYSUSPENSIONBRIDGE_SUSPENSIONBRIDGE_TOWER_SOUTH_CS_035, material=CONCRETE, section=BOX

 ***WARNING: ONE OR MORE THICKNESS OF THE BOX SECTION IS GREATER THAN 0.1 OF 
             THE CROSS SECTION DIMENSION. THE TORSIONAL RIGIDITY MAY NOT BE 
             EVALUATED ACCURATELY SINCE THE CALCULATION IS BASED ON THE 
             ASSUMPTION THAT THE WALL THICKNESS IS MUCH SMALL IN COMPARISON TO 
             THE CROSS SECTION DIMENSION
  *beamsection, elset=ASSEMBLYSUSPENSIONBRIDGE_SUSPENSIONBRIDGE_TOWER_NORTH_CS_035, material=CONCRETE, section=BOX

 ***WARNING: ONE OR MORE THICKNESS OF THE BOX SECTION IS GREATER THAN 0.1 OF 
             THE CROSS SECTION DIMENSION. THE TORSIONAL RIGIDITY MAY NOT BE 
             EVALUATED ACCURATELY SINCE THE CALCULATION IS BASED ON THE 
             ASSUMPTION THAT THE WALL THICKNESS IS MUCH SMALL IN COMPARISON TO 
             THE CROSS SECTION DIMENSION
  *beamsection, elset=ASSEMBLYSUSPENSIONBRIDGE_SUSPENSIONBRIDGE_TOWER_SOUTH_CS_036, material=CONCRETE, section=BOX

 ***WARNING: ONE OR MORE THICKNESS OF THE BOX SECTION IS GREATER THAN 0.1 OF 
             THE CROSS SECTION DIMENSION. THE TORSIONAL RIGIDITY MAY NOT BE 
             EVALUATED ACCURATELY SINCE THE CALCULATION IS BASED ON THE 
             ASSUMPTION THAT THE WALL THICKNESS IS MUCH SMALL IN COMPARISON TO 
             THE CROSS SECTION DIMENSION
  *beamsection, elset=ASSEMBLYSUSPENSIONBRIDGE_SUSPENSIONBRIDGE_TOWER_NORTH_CS_036, material=CONCRETE, section=BOX

 ***WARNING: ONE OR MORE THICKNESS OF THE BOX SECTION IS GREATER THAN 0.1 OF 
             THE CROSS SECTION DIMENSION. THE TORSIONAL RIGIDITY MAY NOT BE 
             EVALUATED ACCURATELY SINCE THE CALCULATION IS BASED ON THE 
             ASSUMPTION THAT THE WALL THICKNESS IS MUCH SMALL IN COMPARISON TO 
             THE CROSS SECTION DIMENSION
  *beamsection, elset=ASSEMBLYSUSPENSIONBRIDGE_SUSPENSIONBRIDGE_TOWER_SOUTH_CS_037, material=CONCRETE, section=BOX

 ***WARNING: ONE OR MORE THICKNESS OF THE BOX SECTION IS GREATER THAN 0.1 OF 
             THE CROSS SECTION DIMENSION. THE TORSIONAL RIGIDITY MAY NOT BE 
             EVALUATED ACCURATELY SINCE THE CALCULATION IS BASED ON THE 
             ASSUMPTION THAT THE WALL THICKNESS IS MUCH SMALL IN COMPARISON TO 
             THE CROSS SECTION DIMENSION
  *beamsection, elset=ASSEMBLYSUSPENSIONBRIDGE_SUSPENSIONBRIDGE_TOWER_NORTH_CS_037, material=CONCRETE, section=BOX

 ***WARNING: ONE OR MORE THICKNESS OF THE BOX SECTION IS GREATER THAN 0.1 OF 
             THE CROSS SECTION DIMENSION. THE TORSIONAL RIGIDITY MAY NOT BE 
             EVALUATED ACCURATELY SINCE THE CALCULATION IS BASED ON THE 
             ASSUMPTION THAT THE WALL THICKNESS IS MUCH SMALL IN COMPARISON TO 
             THE CROSS SECTION DIMENSION
  *beamsection, elset=ASSEMBLYSUSPENSIONBRIDGE_SUSPENSIONBRIDGE_TOWER_SOUTH_CS_038, material=CONCRETE, section=BOX

 ***WARNING: ONE OR MORE THICKNESS OF THE BOX SECTION IS GREATER THAN 0.1 OF 
             THE CROSS SECTION DIMENSION. THE TORSIONAL RIGIDITY MAY NOT BE 
             EVALUATED ACCURATELY SINCE THE CALCULATION IS BASED ON THE 
             ASSUMPTION THAT THE WALL THICKNESS IS MUCH SMALL IN COMPARISON TO 
             THE CROSS SECTION DIMENSION
  *beamsection, elset=ASSEMBLYSUSPENSIONBRIDGE_SUSPENSIONBRIDGE_TOWER_NORTH_CS_038, material=CONCRETE, section=BOX

 ***WARNING: ONE OR MORE THICKNESS OF THE BOX SECTION IS GREATER THAN 0.1 OF 
             THE CROSS SECTION DIMENSION. THE TORSIONAL RIGIDITY MAY NOT BE 
             EVALUATED ACCURATELY SINCE THE CALCULATION IS BASED ON THE 
             ASSUMPTION THAT THE WALL THICKNESS IS MUCH SMALL IN COMPARISON TO 
             THE CROSS SECTION DIMENSION
  *beamsection, elset=ASSEMBLYSUSPENSIONBRIDGE_SUSPENSIONBRIDGE_TOWER_SOUTH_CS_039, material=CONCRETE, section=BOX

 ***WARNING: ONE OR MORE THICKNESS OF THE BOX SECTION IS GREATER THAN 0.1 OF 
             THE CROSS SECTION DIMENSION. THE TORSIONAL RIGIDITY MAY NOT BE 
             EVALUATED ACCURATELY SINCE THE CALCULATION IS BASED ON THE 
             ASSUMPTION THAT THE WALL THICKNESS IS MUCH SMALL IN COMPARISON TO 
             THE CROSS SECTION DIMENSION
  *beamsection, elset=ASSEMBLYSUSPENSIONBRIDGE_SUSPENSIONBRIDGE_TOWER_NORTH_CS_039, material=CONCRETE, section=BOX

 ***WARNING: ONE OR MORE THICKNESS OF THE BOX SECTION IS GREATER THAN 0.1 OF 
             THE CROSS SECTION DIMENSION. THE TORSIONAL RIGIDITY MAY NOT BE 
             EVALUATED ACCURATELY SINCE THE CALCULATION IS BASED ON THE 
             ASSUMPTION THAT THE WALL THICKNESS IS MUCH SMALL IN COMPARISON TO 
             THE CROSS SECTION DIMENSION
  *beamsection, elset=ASSEMBLYSUSPENSIONBRIDGE_SUSPENSIONBRIDGE_TOWER_SOUTH_CS_040, material=CONCRETE, section=BOX

 ***WARNING: ONE OR MORE THICKNESS OF THE BOX SECTION IS GREATER THAN 0.1 OF 
             THE CROSS SECTION DIMENSION. THE TORSIONAL RIGIDITY MAY NOT BE 
             EVALUATED ACCURATELY SINCE THE CALCULATION IS BASED ON THE 
             ASSUMPTION THAT THE WALL THICKNESS IS MUCH SMALL IN COMPARISON TO 
             THE CROSS SECTION DIMENSION
  *beamsection, elset=ASSEMBLYSUSPENSIONBRIDGE_SUSPENSIONBRIDGE_TOWER_NORTH_CS_040, material=CONCRETE, section=BOX

 ***WARNING: ONE OR MORE THICKNESS OF THE BOX SECTION IS GREATER THAN 0.1 OF 
             THE CROSS SECTION DIMENSION. THE TORSIONAL RIGIDITY MAY NOT BE 
             EVALUATED ACCURATELY SINCE THE CALCULATION IS BASED ON THE 
             ASSUMPTION THAT THE WALL THICKNESS IS MUCH SMALL IN COMPARISON TO 
             THE CROSS SECTION DIMENSION
  *beamsection, elset=ASSEMBLYSUSPENSIONBRIDGE_SUSPENSIONBRIDGE_TOWER_SOUTH_CS_041, material=CONCRETE, section=BOX

 ***WARNING: ONE OR MORE THICKNESS OF THE BOX SECTION IS GREATER THAN 0.1 OF 
             THE CROSS SECTION DIMENSION. THE TORSIONAL RIGIDITY MAY NOT BE 
             EVALUATED ACCURATELY SINCE THE CALCULATION IS BASED ON THE 
             ASSUMPTION THAT THE WALL THICKNESS IS MUCH SMALL IN COMPARISON TO 
             THE CROSS SECTION DIMENSION
  *beamsection, elset=ASSEMBLYSUSPENSIONBRIDGE_SUSPENSIONBRIDGE_TOWER_NORTH_CS_041, material=CONCRETE, section=BOX

 ***WARNING: ONE OR MORE THICKNESS OF THE BOX SECTION IS GREATER THAN 0.1 OF 
             THE CROSS SECTION DIMENSION. THE TORSIONAL RIGIDITY MAY NOT BE 
             EVALUATED ACCURATELY SINCE THE CALCULATION IS BASED ON THE 
             ASSUMPTION THAT THE WALL THICKNESS IS MUCH SMALL IN COMPARISON TO 
             THE CROSS SECTION DIMENSION
  *beamsection, elset=ASSEMBLYSUSPENSIONBRIDGE_SUSPENSIONBRIDGE_TOWER_SOUTH_CS_042, material=CONCRETE, section=BOX

 ***WARNING: ONE OR MORE THICKNESS OF THE BOX SECTION IS GREATER THAN 0.1 OF 
             THE CROSS SECTION DIMENSION. THE TORSIONAL RIGIDITY MAY NOT BE 
             EVALUATED ACCURATELY SINCE THE CALCULATION IS BASED ON THE 
             ASSUMPTION THAT THE WALL THICKNESS IS MUCH SMALL IN COMPARISON TO 
             THE CROSS SECTION DIMENSION
  *beamsection, elset=ASSEMBLYSUSPENSIONBRIDGE_SUSPENSIONBRIDGE_TOWER_NORTH_CS_042, material=CONCRETE, section=BOX

 ***WARNING: ONE OR MORE THICKNESS OF THE BOX SECTION IS GREATER THAN 0.1 OF 
             THE CROSS SECTION DIMENSION. THE TORSIONAL RIGIDITY MAY NOT BE 
             EVALUATED ACCURATELY SINCE THE CALCULATION IS BASED ON THE 
             ASSUMPTION THAT THE WALL THICKNESS IS MUCH SMALL IN COMPARISON TO 
             THE CROSS SECTION DIMENSION
  *beamsection, elset=ASSEMBLYSUSPENSIONBRIDGE_SUSPENSIONBRIDGE_TOWER_CROSSBEAM_SOUTH_1, material=CONCRETE, section=BOX

 ***WARNING: ONE OR MORE THICKNESS OF THE BOX SECTION IS GREATER THAN 0.1 OF 
             THE CROSS SECTION DIMENSION. THE TORSIONAL RIGIDITY MAY NOT BE 
             EVALUATED ACCURATELY SINCE THE CALCULATION IS BASED ON THE 
             ASSUMPTION THAT THE WALL THICKNESS IS MUCH SMALL IN COMPARISON TO 
             THE CROSS SECTION DIMENSION
  *beamsection, elset=ASSEMBLYSUSPENSIONBRIDGE_SUSPENSIONBRIDGE_TOWER_CROSSBEAM_NORTH_1, material=CONCRETE, section=BOX

 ***WARNING: ONE OR MORE THICKNESS OF THE BOX SECTION IS GREATER THAN 0.1 OF 
             THE CROSS SECTION DIMENSION. THE TORSIONAL RIGIDITY MAY NOT BE 
             EVALUATED ACCURATELY SINCE THE CALCULATION IS BASED ON THE 
             ASSUMPTION THAT THE WALL THICKNESS IS MUCH SMALL IN COMPARISON TO 
             THE CROSS SECTION DIMENSION
  *beamsection, elset=ASSEMBLYSUSPENSIONBRIDGE_SUSPENSIONBRIDGE_TOWER_CROSSBEAM_SOUTH_2, material=CONCRETE, section=BOX

 ***WARNING: ONE OR MORE THICKNESS OF THE BOX SECTION IS GREATER THAN 0.1 OF 
             THE CROSS SECTION DIMENSION. THE TORSIONAL RIGIDITY MAY NOT BE 
             EVALUATED ACCURATELY SINCE THE CALCULATION IS BASED ON THE 
             ASSUMPTION THAT THE WALL THICKNESS IS MUCH SMALL IN COMPARISON TO 
             THE CROSS SECTION DIMENSION
  *beamsection, elset=ASSEMBLYSUSPENSIONBRIDGE_SUSPENSIONBRIDGE_TOWER_CROSSBEAM_NORTH_2, material=CONCRETE, section=BOX

 ***WARNING: ONE OR MORE THICKNESS OF THE BOX SECTION IS GREATER THAN 0.1 OF 
             THE CROSS SECTION DIMENSION. THE TORSIONAL RIGIDITY MAY NOT BE 
             EVALUATED ACCURATELY SINCE THE CALCULATION IS BASED ON THE 
             ASSUMPTION THAT THE WALL THICKNESS IS MUCH SMALL IN COMPARISON TO 
             THE CROSS SECTION DIMENSION
  *beamsection, elset=ASSEMBLYSUSPENSIONBRIDGE_SUSPENSIONBRIDGE_BEARINGPENDULUM, material=STEEL, section=BOX
  *beamgeneralsection, elset=ASSEMBLYSUSPENSIONBRIDGE_SUSPENSIONBRIDGE_CABLE_MAIN, density=7850, section=GENERAL
  *beamgeneralsection, elset=ASSEMBLYSUSPENSIONBRIDGE_SUSPENSIONBRIDGE_CABLE_TEMPSUPPORT, density=0, section=GENERAL
  *beamgeneralsection, elset=ASSEMBLYSUSPENSIONBRIDGE_SUSPENSIONBRIDGE_LATCONNOUTER, density=0, section=GENERAL
  *beamgeneralsection, elset=ASSEMBLYSUSPENSIONBRIDGE_SUSPENSIONBRIDGE_BRIDGEDECK_COG, density=0, section=GENERAL
  *beamaddedinertia
  *beamaddedinertia
  *shearcenter
  *beamgeneralsection, elset=ASSEMBLYSUSPENSIONBRIDGE_SUSPENSIONBRIDGE_HANGER, density=7850, section=GENERAL
  *beamgeneralsection, elset=ASSEMBLYSUSPENSIONBRIDGE_SUSPENSIONBRIDGE_BEARINGTOP, density=0, section=GENERAL
  *beamgeneralsection, elset=ASSEMBLYSUSPENSIONBRIDGE_SUSPENSIONBRIDGE_BEARINGLOW, density=0, section=GENERAL
  *shellsection, elset=ASSEMBLYSUSPENSIONBRIDGE_SUSPENSIONBRIDGE_BRIDGEDECK_SHELL, material=SOFT, offset=SNEG
  *spring, elset=ASSEMBLYSUSPENSIONBRIDGE_SUSPENSIONBRIDGE_SADLESPRING_X
  *spring, elset=ASSEMBLYSUSPENSIONBRIDGE_SUSPENSIONBRIDGE_SADLESPRING_Y
  *spring, elset=ASSEMBLYSUSPENSIONBRIDGE_SUSPENSIONBRIDGE_SADLESPRING_Z
  *spring, elset=ASSEMBLYSUSPENSIONBRIDGE_SUSPENSIONBRIDGE_BEARINGSPRING1_SOUTH_X
  *spring, elset=ASSEMBLYSUSPENSIONBRIDGE_SUSPENSIONBRIDGE_BEARINGSPRING1_SOUTH_Y
  *spring, elset=ASSEMBLYSUSPENSIONBRIDGE_SUSPENSIONBRIDGE_BEARINGSPRING1_SOUTH_Z
  *spring, elset=ASSEMBLYSUSPENSIONBRIDGE_SUSPENSIONBRIDGE_BEARINGSPRING1_SOUTH_RX
  *spring, elset=ASSEMBLYSUSPENSIONBRIDGE_SUSPENSIONBRIDGE_BEARINGSPRING1_SOUTH_RY
  *spring, elset=ASSEMBLYSUSPENSIONBRIDGE_SUSPENSIONBRIDGE_BEARINGSPRING1_SOUTH_RZ
  *spring, elset=ASSEMBLYSUSPENSIONBRIDGE_SUSPENSIONBRIDGE_BEARINGSPRING1_NORTH_X
  *spring, elset=ASSEMBLYSUSPENSIONBRIDGE_SUSPENSIONBRIDGE_BEARINGSPRING1_NORTH_Y
  *spring, elset=ASSEMBLYSUSPENSIONBRIDGE_SUSPENSIONBRIDGE_BEARINGSPRING1_NORTH_Z
  *spring, elset=ASSEMBLYSUSPENSIONBRIDGE_SUSPENSIONBRIDGE_BEARINGSPRING1_NORTH_RX
  *spring, elset=ASSEMBLYSUSPENSIONBRIDGE_SUSPENSIONBRIDGE_BEARINGSPRING1_NORTH_RY
  *spring, elset=ASSEMBLYSUSPENSIONBRIDGE_SUSPENSIONBRIDGE_BEARINGSPRING1_NORTH_RZ
  *boundary, op=NEW
  *boundary, op=NEW
  *boundary, op=NEW
  *boundary, op=NEW
  *mpc
  *mpc
  *mpc
  *mpc
  *mpc
  *mpc
  *mpc
  *mpc
  *release
  *release
  *release
  *release
  *output, field, frequency=100
  *output, field, frequency=100
  *output, field, frequency=100
  *output, field, frequency=100
  *output, field, frequency=100
  *output, field, frequency=100
  *output, field, frequency=100
  *output, field, frequency=100
  *output, field
  *output, field
  *elementoutput
  *elementoutput
  *elementoutput
  *elementoutput
  *elementoutput
  *output, field, frequency=100
  *output, field, frequency=100
  *output, field, frequency=100
  *output, field, frequency=100
  *output, field, frequency=100
  *output, field, frequency=100
  *output, field, frequency=100
  *output, field, frequency=100
  *output, field
  *output, field
  *elementoutput
  *elementoutput
  *elementoutput
  *elementoutput
  *elementoutput
  *output, field, frequency=100
  *output, field, frequency=100
  *output, field, frequency=100
  *output, field, frequency=100
  *output, field, frequency=100
  *output, field, frequency=100
  *output, field, frequency=100
  *output, field, frequency=100
  *output, field
  *output, field
  *elementoutput
  *elementoutput
  *elementoutput
  *elementoutput
  *elementoutput
  *Step, nlgeom=YES, name=STEP1
  *output, field, frequency=100
  *output, field, frequency=100
  *Step, nlgeom=YES, name=STEP2
  *output, field, frequency=100
  *output, field, frequency=100
  *Step, nlgeom=YES, name=STEP3
  *output, field, frequency=100
  *output, field, frequency=100
  *Step, nlgeom=YES, name=STEP4
  *output, field, frequency=100
  *output, field, frequency=100
  *Step, name=STEP_MODAL
  *frequency, normalization=DISPLACEMENT, sim=NO
  *output, field
  *output, field
  *Step, nlgeom=YES, name=STEP1
  *Step, nlgeom=YES, name=STEP2
  *Step, nlgeom=YES, name=STEP3
  *Step, nlgeom=YES, name=STEP4
  *Step, name=STEP_MODAL
  *Step, nlgeom=YES, name=STEP1
  *static
  *modelchange, remove
  *modelchange, remove
  *modelchange, remove
  *modelchange, remove
  *modelchange, remove
  *modelchange, remove
  *dload, op=NEW

 ***NOTE: ALL ELEMENTS THAT HAVE MASS ARE COLLECTED IN ELEMENT SET 
          _Whole_Model_Gravity_Elset FOR APPLICATION OF GRAVITY LOAD.
  *boundary, op=NEW
  *output, field, frequency=100
  *nodeoutput
  *output, field, frequency=100
  *elementoutput
  *endstep

 ***WARNING: OUTPUT REQUEST SF IS NOT AVAILABLE FOR ELEMENT TYPE SPRING2

 ***WARNING: OUTPUT REQUEST SF IS NOT AVAILABLE FOR ELEMENT TYPE SPRING2

 ***WARNING: OUTPUT REQUEST SF IS NOT AVAILABLE FOR ELEMENT TYPE SPRING2

 ***WARNING: OUTPUT REQUEST SF IS NOT AVAILABLE FOR ELEMENT TYPE SPRING2

 ***WARNING: OUTPUT REQUEST SF IS NOT AVAILABLE FOR ELEMENT TYPE SPRING2

 ***WARNING: OUTPUT REQUEST SF IS NOT AVAILABLE FOR ELEMENT TYPE SPRING2
  *Step, nlgeom=YES, name=STEP2
  *static
  *modelchange, add
  *modelchange, add
  *modelchange, add
  *modelchange, add
  *dload, op=NEW
  *boundary, op=NEW
  *boundary, op=NEW
  *output, field, frequency=100
  *nodeoutput
  *output, field, frequency=100
  *elementoutput
  *endstep

 ***WARNING: OUTPUT REQUEST SF IS NOT AVAILABLE FOR ELEMENT TYPE SPRING2

 ***WARNING: OUTPUT REQUEST SF IS NOT AVAILABLE FOR ELEMENT TYPE SPRING2

 ***WARNING: OUTPUT REQUEST SF IS NOT AVAILABLE FOR ELEMENT TYPE SPRING2

 ***WARNING: OUTPUT REQUEST SF IS NOT AVAILABLE FOR ELEMENT TYPE SPRING2

 ***WARNING: OUTPUT REQUEST SF IS NOT AVAILABLE FOR ELEMENT TYPE SPRING2

 ***WARNING: OUTPUT REQUEST SF IS NOT AVAILABLE FOR ELEMENT TYPE SPRING2

 ***WARNING: OUTPUT REQUEST S IS NOT AVAILABLE FOR ELEMENT TYPE B31 UNLESS 
             *SECTION POINTS IS SPECIFIED AS PART OF THE *BEAM GENERAL SECTION 
             DEFINITION

 ***WARNING: OUTPUT REQUEST S IS NOT AVAILABLE FOR ELEMENT TYPE B31 UNLESS 
             *SECTION POINTS IS SPECIFIED AS PART OF THE *BEAM GENERAL SECTION 
             DEFINITION

 ***WARNING: OUTPUT REQUEST S IS NOT AVAILABLE FOR ELEMENT TYPE B33 UNLESS 
             *SECTION POINTS IS SPECIFIED AS PART OF THE *BEAM GENERAL SECTION 
             DEFINITION

 ***WARNING: OUTPUT REQUEST S IS NOT AVAILABLE FOR ELEMENT TYPE B31 UNLESS 
             *SECTION POINTS IS SPECIFIED AS PART OF THE *BEAM GENERAL SECTION 
             DEFINITION
  *Step, nlgeom=YES, name=STEP3
  *static
  *modelchange, add
  *modelchange, add
  *modelchange, remove
  *modelchange, remove
  *dload, op=NEW
  *output, field, frequency=100
  *nodeoutput
  *output, field, frequency=100
  *elementoutput
  *endstep

 ***WARNING: OUTPUT REQUEST SF IS NOT AVAILABLE FOR ELEMENT TYPE SPRING2

 ***WARNING: OUTPUT REQUEST SF IS NOT AVAILABLE FOR ELEMENT TYPE SPRING2

 ***WARNING: OUTPUT REQUEST SF IS NOT AVAILABLE FOR ELEMENT TYPE SPRING2

 ***WARNING: OUTPUT REQUEST SF IS NOT AVAILABLE FOR ELEMENT TYPE SPRING2

 ***WARNING: OUTPUT REQUEST SF IS NOT AVAILABLE FOR ELEMENT TYPE SPRING2

 ***WARNING: OUTPUT REQUEST SF IS NOT AVAILABLE FOR ELEMENT TYPE SPRING2

 ***WARNING: OUTPUT REQUEST S IS NOT AVAILABLE FOR ELEMENT TYPE B31 UNLESS 
             *SECTION POINTS IS SPECIFIED AS PART OF THE *BEAM GENERAL SECTION 
             DEFINITION

 ***WARNING: OUTPUT REQUEST S IS NOT AVAILABLE FOR ELEMENT TYPE B31 UNLESS 
             *SECTION POINTS IS SPECIFIED AS PART OF THE *BEAM GENERAL SECTION 
             DEFINITION

 ***WARNING: OUTPUT REQUEST S IS NOT AVAILABLE FOR ELEMENT TYPE B33 UNLESS 
             *SECTION POINTS IS SPECIFIED AS PART OF THE *BEAM GENERAL SECTION 
             DEFINITION

 ***WARNING: OUTPUT REQUEST S IS NOT AVAILABLE FOR ELEMENT TYPE B31 UNLESS 
             *SECTION POINTS IS SPECIFIED AS PART OF THE *BEAM GENERAL SECTION 
             DEFINITION
  *Step, nlgeom=YES, name=STEP4
  *static
  *modelchange, add
  *modelchange, add
  *modelchange, add
  *modelchange, add
  *output, field, frequency=100
  *nodeoutput
  *output, field, frequency=100
  *elementoutput
  *endstep

 ***WARNING: OUTPUT REQUEST SF IS NOT AVAILABLE FOR ELEMENT TYPE SPRING2

 ***WARNING: OUTPUT REQUEST SF IS NOT AVAILABLE FOR ELEMENT TYPE SPRING2

 ***WARNING: OUTPUT REQUEST SF IS NOT AVAILABLE FOR ELEMENT TYPE SPRING2

 ***WARNING: OUTPUT REQUEST SF IS NOT AVAILABLE FOR ELEMENT TYPE SPRING2

 ***WARNING: OUTPUT REQUEST SF IS NOT AVAILABLE FOR ELEMENT TYPE SPRING2

 ***WARNING: OUTPUT REQUEST SF IS NOT AVAILABLE FOR ELEMENT TYPE SPRING2

 ***WARNING: OUTPUT REQUEST S IS NOT AVAILABLE FOR ELEMENT TYPE B31 UNLESS 
             *SECTION POINTS IS SPECIFIED AS PART OF THE *BEAM GENERAL SECTION 
             DEFINITION

 ***WARNING: OUTPUT REQUEST S IS NOT AVAILABLE FOR ELEMENT TYPE B31 UNLESS 
             *SECTION POINTS IS SPECIFIED AS PART OF THE *BEAM GENERAL SECTION 
             DEFINITION

 ***WARNING: OUTPUT REQUEST S IS NOT AVAILABLE FOR ELEMENT TYPE B33 UNLESS 
             *SECTION POINTS IS SPECIFIED AS PART OF THE *BEAM GENERAL SECTION 
             DEFINITION

 ***WARNING: OUTPUT REQUEST S IS NOT AVAILABLE FOR ELEMENT TYPE B31 UNLESS 
             *SECTION POINTS IS SPECIFIED AS PART OF THE *BEAM GENERAL SECTION 
             DEFINITION
  *Step, name=STEP_MODAL
  *frequency, normalization=DISPLACEMENT, sim=NO
  *frequency, normalization=DISPLACEMENT, sim=NO
  *output, field
  *nodeoutput
  *output, field
  *elementoutput
  *endstep

 ***WARNING: THE NLGEOM FLAG IS ACTIVATED BECAUSE IT WAS ACTIVE IN THE PREVIOUS 
             STEP. GEOMETRIC NONLINEARITY IN THE BASE STATE WILL BE CONSIDERED 
             IN THE CURRENT STEP.

 ***WARNING: OUTPUT REQUEST SF IS NOT AVAILABLE FOR ELEMENT TYPE SPRING2

 ***WARNING: OUTPUT REQUEST SF IS NOT AVAILABLE FOR ELEMENT TYPE SPRING2

 ***WARNING: OUTPUT REQUEST SF IS NOT AVAILABLE FOR ELEMENT TYPE SPRING2

 ***WARNING: OUTPUT REQUEST SF IS NOT AVAILABLE FOR ELEMENT TYPE SPRING2

 ***WARNING: OUTPUT REQUEST SF IS NOT AVAILABLE FOR ELEMENT TYPE SPRING2

 ***WARNING: OUTPUT REQUEST SF IS NOT AVAILABLE FOR ELEMENT TYPE SPRING2
  *Step, nlgeom=YES, name=STEP1
  *static
  *cload, op=NEW
  *cload, op=NEW
  *boundary, op=NEW
  *endstep
  *Step, nlgeom=YES, name=STEP2
  *static
  *cload, op=NEW
  *boundary, op=NEW
  *boundary, op=NEW
  *endstep
  *Step, nlgeom=YES, name=STEP3
  *static
  *endstep
  *Step, nlgeom=YES, name=STEP4
  *static
  *endstep
  *Step, name=STEP_MODAL
  *frequency, normalization=DISPLACEMENT, sim=NO
  *frequency, normalization=DISPLACEMENT, sim=NO
  *endstep

 ***WARNING: For 42 beam elements either the average curvature about the local 
             1-direction differs by more than 0.1 degrees per unit length as 
             compared to the default curvature or the approximate integrated 
             curvature for the entire beam differs by more than 5 degrees as 
             compared to the approximate integrated default curvature. This may 
             be due to a user-specified normal or due to the nodal averaging 
             routine used by Abaqus. This difference may cause unexpected 
             behavior of the beam and you may want to verify that the beam 
             normals are correct for your problem. The elements have been 
             identified in element set WarnBeamCurvature1.

 ***WARNING: For 2 beam elements either the average curvature about the beam 
             tangent differs by more than 0.1 degrees per unit length as 
             compared to the default curvature or the approximate integrated 
             curvature for the entire beam differs by more than 5 degrees as 
             compared to the approximate integrated default curvature. This may 
             be due to a user-specified normal or due to the nodal averaging 
             routine used by Abaqus. This difference may cause unexpected 
             behavior of the beam and you may want to verify that the beam 
             normals are correct for your problem. The elements have been 
             identified in element set j_WarnBeamTwist.



                            P R O B L E M   S I Z E


          NUMBER OF ELEMENTS IS                                  1501
          NUMBER OF NODES IS                                     1803
          NUMBER OF NODES DEFINED BY THE USER                    1055
          NUMBER OF INTERNAL NODES GENERATED BY THE PROGRAM       748
          TOTAL NUMBER OF VARIABLES IN THE MODEL                 8246
          (DEGREES OF FREEDOM PLUS MAX NO. OF ANY LAGRANGE MULTIPLIER
           VARIABLES. INCLUDE *PRINT,SOLVE=YES TO GET THE ACTUAL NUMBER.)



                              END OF USER INPUT PROCESSING



     JOB TIME SUMMARY
       USER TIME (SEC)      =  0.20000    
       SYSTEM TIME (SEC)    =  0.30000    
       TOTAL CPU TIME (SEC) =  0.50000    
       WALLCLOCK TIME (SEC) =          0
1

   Abaqus 3DEXPERIENCE R2017x                                  Date 26-Dec-2022   Time 15:50:38
   For use by NTNU NORGES TEKNISK NATURVITENSKAPELIGE UNIVERSITET under license from Dassault Systemes or its subsidiary.

                                                                                               STEP    1  INCREMENT    1
                                                                                          TIME COMPLETED IN THIS STEP   0.00    


                        S T E P       1     S T A T I C   A N A L Y S I S


                                                                                          

     AUTOMATIC TIME CONTROL WITH -
          A SUGGESTED INITIAL TIME INCREMENT OF                0.100    
          AND A TOTAL TIME PERIOD OF                            1.00    
          THE MINIMUM TIME INCREMENT ALLOWED IS                1.000E-06
          THE MAXIMUM TIME INCREMENT ALLOWED IS                 1.00    

     LINEAR EQUATION SOLVER TYPE         DIRECT SPARSE

          LARGE DISPLACEMENT THEORY WILL BE USED


  THE TOTAL MASS ACCOUNTS FOR ELEMENT REMOVALS OR REACTIVATIONS IN THIS STEP



                    TOTAL MASS OF MODEL

                      3.0387813E+07


                    LOCATION OF THE CENTER OF MASS OF THE MODEL

                      2.9023559E-13     -2.3091275E-15       84.88328    


                    MOMENTS OF INERTIA ABOUT THE ORIGIN
                           I(XX)               I(YY)               I(ZZ)

                      3.2891685E+11      1.1910659E+13      1.1592574E+13


                    PRODUCTS OF INERTIA ABOUT THE ORIGIN
                           I(XY)               I(XZ)               I(YZ)

                      5.2116811E-06      5.1498413E-05     -1.8682331E-06


                    MOMENTS OF INERTIA ABOUT THE CENTER OF MASS
                           I(XX)               I(YY)               I(ZZ)

                      1.0996744E+11      1.1691710E+13      1.1592574E+13


                    PRODUCTS OF INERTIA ABOUT THE CENTER OF MASS
                           I(XY)               I(XZ)               I(YZ)

                      5.2116811E-06      8.0013712E-04     -7.8244366E-06
  
                   M E M O R Y   E S T I M A T E
  
 PROCESS      FLOATING PT       MINIMUM MEMORY        MEMORY TO
              OPERATIONS           REQUIRED          MINIMIZE I/O
             PER ITERATION           (MB)               (MB)
  
     1         2.64E+005               19                 29
  
 NOTE:
      (1) SINCE ABAQUS DOES NOT PRE-ALLOCATE MEMORY AND ONLY ALLOCATES MEMORY AS NEEDED DURING THE ANALYSIS,
          THE MEMORY REQUIREMENT PRINTED HERE CAN ONLY BE VIEWED AS A GENERAL GUIDELINE BASED ON THE BEST
          KNOWLEDGE AVAILABLE AT THE BEGINNING OF A STEP BEFORE THE SOLUTION PROCESS HAS BEGUN.
      (2) THE ESTIMATE IS NORMALLY UPDATED AT THE BEGINNING OF EVERY STEP. IT IS THE MAXIMUM VALUE OF THE
          ESTIMATE FROM THE CURRENT STEP TO THE LAST STEP OF THE ANALYSIS, WITH UNSYMMETRIC SOLUTION TAKEN
          INTO ACCOUNT IF APPLICABLE. 
      (3) SINCE THE ESTIMATE IS BASED ON THE ACTIVE DEGREES OF FREEDOM IN THE FIRST ITERATION OF THE 
          CURRENT STEP, THE MEMORY ESTIMATE MIGHT BE SIGNIFICANTLY DIFFERENT THAN ACTUAL USAGE FOR 
          PROBLEMS WITH SUBSTANTIAL CHANGES IN ACTIVE DEGREES OF FREEDOM BETWEEN STEPS (OR EVEN WITHIN
          THE SAME STEP). EXAMPLES ARE: PROBLEMS WITH SIGNIFICANT CONTACT CHANGES, PROBLEMS WITH MODEL
          CHANGE, PROBLEMS WITH BOTH STATIC STEP AND STEADY STATE DYNAMIC PROCEDURES WHERE ACOUSTIC 
          ELEMENTS WILL ONLY BE ACTIVATED IN THE STEADY STATE DYNAMIC STEPS.
      (4) FOR MULTI-PROCESS EXECUTION, THE ESTIMATED VALUE OF FLOATING POINT OPERATIONS FOR EACH PROCESS
          IS BASED ON AN INITIAL SCHEDULING OF OPERATIONS AND MIGHT NOT REFLECT THE ACTUAL FLOATING 
          POINT OPERATIONS COMPLETED ON EACH PROCESS. OPERATIONS ARE DYNAMICALLY BALANCED DURING EXECUTION, 
          SO THE ACTUAL BALANCE OF OPERATIONS BETWEEN PROCESSES IS EXPECTED TO BE BETTER THAN THE ESTIMATE
          PRINTED HERE.
      (5) THE UPPER LIMIT OF MEMORY THAT CAN BE ALLOCATED BY ABAQUS WILL IN GENERAL DEPEND ON THE VALUE OF
          THE "MEMORY" PARAMETER AND THE AMOUNT OF PHYSICAL MEMORY AVAILABLE ON THE MACHINE. PLEASE SEE
          THE "ABAQUS ANALYSIS USER'S MANUAL" FOR MORE DETAILS. THE ACTUAL USAGE OF MEMORY AND OF DISK
          SPACE FOR SCRATCH DATA WILL DEPEND ON THIS UPPER LIMIT AS WELL AS THE MEMORY REQUIRED TO MINIMIZE
          I/O. IF THE MEMORY UPPER LIMIT IS GREATER THAN THE MEMORY REQUIRED TO MINIMIZE I/O, THEN THE ACTUAL
          MEMORY USAGE WILL BE CLOSE TO THE ESTIMATED "MEMORY TO MINIMIZE I/O" VALUE, AND THE SCRATCH DISK
          USAGE WILL BE CLOSE-TO-ZERO; OTHERWISE, THE ACTUAL MEMORY USED WILL BE CLOSE TO THE PREVIOUSLY
          MENTIONED MEMORY LIMIT, AND THE SCRATCH DISK USAGE WILL BE ROUGHLY PROPORTIONAL TO THE DIFFERENCE
          BETWEEN THE ESTIMATED "MEMORY TO MINIMIZE I/O" AND THE MEMORY UPPER LIMIT. HOWEVER ACCURATE
          ESTIMATE OF THE SCRATCH DISK SPACE IS NOT POSSIBLE.
      (6) USING "*RESTART, WRITE" CAN GENERATE A LARGE AMOUNT OF DATA WRITTEN IN THE WORK DIRECTORY.
1

   Abaqus 3DEXPERIENCE R2017x                                  Date 26-Dec-2022   Time 15:50:39
   For use by NTNU NORGES TEKNISK NATURVITENSKAPELIGE UNIVERSITET under license from Dassault Systemes or its subsidiary.

                                                                                               STEP    2  INCREMENT    1
                                                                                          TIME COMPLETED IN THIS STEP   0.00    


                        S T E P       2     S T A T I C   A N A L Y S I S


[...]
      10      0.24707        2.90206E-09    4.80615E-05   -9.58125E-08    -169.11       -7.88722E-07
      11       1.1988       -3.41808E-10    3.32844E-05    2.16987E-08     135.47       -2.44284E-07
      12     -5.78744E-10    -1.0119       -4.14530E-09     133.59       -1.33763E-06    7.31124E-03
      13     -1.35528E-04   -2.79440E-09    0.39030        5.10068E-07   -1.26462E-02    9.92672E-07
      14     -1.14114E-05   -6.07084E-09   -2.37413E-02    6.51706E-07   -2.29055E-03   -1.39401E-06
      15     -7.89206E-10    0.14932        2.08792E-09    -48.180       -2.99797E-06    4.27501E-03
      16      1.80867E-09    7.78239E-05   -3.28971E-11   -9.63807E-03   -9.24769E-07     1294.7    
      17     -4.63332E-11     1.6247       -2.21882E-09    -205.76        5.46055E-07   -3.69433E-02
      18      7.23486E-06   -6.92866E-09   -0.12811        7.24910E-07    2.10901E-02   -1.31008E-07
      19      4.53000E-10   -0.10887        2.15561E-09     12.188       -2.28132E-06    4.54351E-03
      20      7.80810E-02    9.99786E-10    2.03023E-06   -1.46081E-07     152.39        3.20278E-07
      21     -5.99065E-06   -1.79281E-10   -3.26128E-02    2.09879E-08   -1.44923E-02    5.82993E-07
      22     -2.80111E-02   -8.39511E-10    2.09259E-05    6.88360E-08     664.31        2.40955E-06
      23      2.87483E-04   -5.58360E-10     1.2275        1.04275E-07    6.39873E-02    8.15835E-07
      24     -1.32146E-08   -2.45180E-05   -1.27503E-08    2.33313E-03   -3.44821E-06    -7.0570    
      25     -0.30420        3.35702E-09    2.30335E-04   -1.31530E-07    -55.072        8.15545E-07
      26     -3.07293E-08    8.86899E-06   -9.40279E-11    1.49818E-03   -4.01342E-06    -90.225    
      27      3.98176E-08    8.82106E-02   -1.49327E-09     1.4827        7.66520E-06    2.50725E-02
      28      0.25621        2.39333E-09   -1.51724E-05    5.51167E-09    -17.187       -1.91035E-06
      29      0.33488        8.25066E-10    3.68114E-05   -1.04133E-07    -66.388       -4.49565E-07
      30     -2.19340E-09    7.16234E-05    1.00520E-08   -6.42595E-03    3.14754E-07    -65.675    
      31     -4.92579E-11   -0.77447        3.27286E-11     116.10       -3.41721E-07   -1.97150E-02
      32      5.06564E-11   -2.96015E-05    1.02675E-10    4.19642E-03   -1.31602E-07     480.89    
      33      4.37249E-06   -2.22875E-09   -7.57875E-02    2.73569E-07   -1.21601E-03   -5.58190E-07
      34     -2.33153E-05   -5.56197E-09    0.22198        7.19734E-07    1.14998E-03    2.30730E-07
      35     -1.70793E-10   -0.68715       -4.21183E-09     86.159       -2.81043E-07    2.73272E-03
      36     -6.06773E-10   -1.84166E-06    9.76508E-10    7.46223E-04    6.66679E-07    -199.97    
      37     -6.53654E-03    4.96622E-10    8.87089E-07   -3.96262E-08    -20.450        9.96295E-07
      38      1.93618E-10    7.93576E-08    7.06990E-10    1.84938E-04    1.37677E-06    -31.354    
      39     -4.37604E-02    2.32526E-09    3.42219E-05   -9.77579E-08    -102.42       -4.06429E-07
      40      2.09094E-09    6.48399E-02   -1.08000E-09     3.3841        2.50171E-07   -1.61625E-02
      41     -9.80603E-12   -3.54320E-05    1.01680E-10    1.19915E-03   -3.79121E-08    -2.3745    
      42      1.56653E-10    0.18988       -1.02078E-10    -4.4825        2.83058E-07    9.84023E-03
      43      1.14863E-06    7.70187E-10   -2.64997E-02    7.66959E-09   -2.15655E-04    2.34635E-07
      44      2.12221E-09    9.39202E-03    5.30876E-10     3.9311        1.34353E-07   -1.50493E-03
      45     -6.34597E-05    1.32263E-09    0.15678       -3.83203E-08    2.15332E-04    9.55400E-07
      46     -4.61532E-10    3.97466E-05   -7.03188E-10   -5.32829E-04   -9.21053E-07     199.30    
      47     -4.38143E-03    1.18300E-08   -2.92434E-06   -2.14079E-07    -12.577       -3.18411E-07
      48     -1.11463E-10    0.59332        1.01373E-11    -10.288        4.04656E-07   -5.70908E-02
      49      2.63851E-09    4.09201E-05    1.36962E-10   -7.87140E-04    2.52105E-06     250.12    
      50      0.11159       -3.13294E-10    6.06275E-06   -5.10223E-08     95.594       -3.46551E-06
      51     -9.13571E-06    3.09952E-10   -3.68639E-03   -1.60391E-07    3.99946E-03    1.42566E-06
      52     -5.20027E-03    1.63104E-09    6.59847E-06   -2.98234E-08     2.1198        2.97038E-07
      53      3.26173E-07   -2.15325E-09    2.51778E-02    4.48315E-08   -3.04429E-04    6.90232E-07
      54     -2.83919E-10    1.15727E-05    8.37651E-10    1.13873E-03   -2.45765E-07    -14.387    
      55     -1.45378E-09   -2.67151E-02    2.48221E-10    -3.0238       -1.29843E-06   -6.30741E-03
      56      1.69510E-09   -1.05322E-04   -1.21924E-09    4.77383E-03    7.38999E-07     61.807    
      57      3.41390E-10   -0.20759        8.54019E-11    2.87748E-02   -2.53265E-07   -9.51679E-03
      58     -9.18780E-06    1.42058E-09   -1.77794E-02   -1.13905E-07   -6.92844E-03   -1.04597E-07
      59      8.09292E-10    0.27425        7.30809E-10    -13.989        3.23843E-06    9.73418E-03
      60     -5.41918E-02    8.79253E-09    1.68380E-05   -4.03702E-07    -83.553        7.86824E-07
      61     -1.28531E-09    6.27337E-06    2.74789E-10    9.99336E-04   -8.01611E-08    -105.01    
      62      1.19795E-02    2.42030E-10   -2.10961E-03   -1.09134E-08    -78.621       -1.04707E-07
      63      1.94744E-04    5.62942E-11    0.12950        3.48652E-09    -1.2807        5.82738E-09
      64      4.84735E-03   -1.07216E-10    5.88179E-06    3.07494E-09     9.1597        1.93579E-07
      65      4.86507E-09    0.34680       -2.31126E-09     2.7726        1.60741E-07   -1.26973E-02
      66     -1.86224E-04    2.90219E-09    0.12415       -5.89999E-09    4.37709E-04   -3.29389E-08
      67     -1.69470E-04   -2.25083E-09   -7.15628E-03    5.89277E-08   -6.90865E-03   -3.13115E-07
      68     -1.51655E-07   -0.23381        3.91923E-10     7.5418       -7.21325E-06    0.14106    
      69      0.36003       -3.98129E-08    3.88593E-05    1.16670E-06     17.306       -7.95654E-06
      70     -1.65181E-08   -7.22259E-05    2.42103E-10    2.86197E-03   -5.21485E-07    -283.68    
      71     -3.90782E-10   -0.33262       -3.08388E-10    -3.3037        1.21214E-07   -1.33793E-02
      72     -6.06597E-09   -3.12370E-05    5.84390E-10    1.25226E-03    1.60873E-06    -135.89    
      73      1.73151E-05   -3.61316E-10   -3.32865E-02    4.41735E-08   -1.30744E-02    1.49970E-07
      74     -2.46116E-03   -1.53336E-10   -1.92136E-05   -6.88074E-08    -9.9561        3.78536E-06
      75      5.12309E-10   -4.03786E-05   -2.97060E-10    1.94932E-04    1.72412E-06     18.113    
      76      7.53004E-05   -8.02439E-10   -4.31785E-02   -8.45268E-08    0.21917       -4.86457E-07
      77     -1.21642E-02    1.11821E-09   -2.86073E-04    9.80022E-08    -33.672        3.91022E-07
      78      2.26971E-05    1.42537E-09    0.33880        1.32253E-08   -2.21816E-02   -2.52287E-06
      79     -0.23919        9.36276E-10    3.75870E-05   -3.74826E-07     236.05       -1.59070E-06
      80      3.37020E-09    1.48792E-06    3.80692E-08   -7.11327E-04   -4.78891E-06     23.125    
      81     -2.93291E-08   -6.27975E-03   -5.90073E-09     3.5607        2.93382E-05    7.48764E-03
      82      7.46644E-02   -2.17428E-08   -1.91659E-05    7.43921E-07     70.965       -7.83525E-06
      83      6.20918E-09    0.75011        6.94740E-10    -25.530        6.76074E-06   -0.76754    
      84      6.97218E-09    1.02139E-03    1.70339E-10   -3.47559E-02    4.03016E-06     500.16    
      85     -2.30446E-04   -9.06148E-10   -1.46608E-02    9.99162E-08    1.48068E-02    5.26042E-07
      86      3.76211E-09    0.50703       -2.79236E-10    -22.049        6.64699E-08   -9.40309E-02
      87      0.76801       -5.10729E-10    9.05956E-06   -2.55643E-08    -17.667       -1.27383E-06
      88     -1.94963E-08    2.74856E-02    3.07863E-09    -9.8495        2.04330E-07    0.68751    
      89      4.27663E-09    7.10985E-05    6.36314E-11   -3.24377E-02   -2.29696E-07    -121.69    
      90     -7.36748E-03    1.66196E-10   -4.11958E-06   -1.30432E-07     8.8154        2.47211E-06
      91     -5.30304E-09    6.79947E-06   -1.56388E-09   -1.69869E-03   -1.41755E-07    -69.979    
      92      1.53837E-04   -3.32899E-10    0.12976        2.08520E-08   -6.82324E-03   -5.42515E-07
      93     -4.96140E-10   -0.32895        5.98486E-10     21.413        1.11964E-08    1.90821E-02
      94     -8.78489E-05   -4.45941E-09    1.71800E-02    2.64889E-07   -1.31407E-03   -7.53517E-08
      95     -7.09729E-11    4.42457E-05    1.01605E-09   -3.40055E-03    9.73508E-07    -135.43    
      96      7.04816E-10    1.00426E-03    1.61458E-10   -7.06419E-02    3.27176E-07     182.00    
      97      4.30594E-03   -1.94943E-08    3.39425E-04    1.45361E-06    -2.2928        2.60837E-05
      98     -9.87355E-07    3.23833E-08    1.76999E-02   -2.55377E-06    6.14086E-02   -3.35817E-06
      99      2.89506E-02    1.55536E-03   -0.12751       -0.12093        -4.2493       -0.29356    
     100     -9.53414E-06     4.6400        4.20437E-05    -360.83        1.34536E-03    -857.77    


                    E F F E C T I V E   M A S S

 MODE NO    X-COMPONENT    Y-COMPONENT    Z-COMPONENT    X-ROTATION     Y-ROTATION     Z-ROTATION 

       1      8.75782E-14    2.04025E+07    3.16963E-13    1.47593E+11    4.89383E-06     7.1742    
       2      3.45742E+05    3.43115E-11    3.91564E-04    9.23180E-09    1.99922E+12    3.74025E-07
       3      2.32918E-03    5.63151E-13    3.19324E+06    9.20495E-09     245.74        2.90545E-03
       4      2.22778E-11    2.95354E-03    5.56367E-09     24.438        7.23493E-07    2.12001E+12
       5      3.72864E-05    2.23749E-11    1.61633E+05    1.36302E-06     131.08        2.85388E-04
       6      4.44713E-04    3.64399E-11    1.60609E+07    2.25605E-06     2803.1        5.50955E-06
       7      3.98863E-12    4.40840E+05    8.47326E-10    2.84662E+10    3.64220E-05     1032.5    
       8       3296.9        1.80080E-09    5.57937E-03    1.05099E-04    8.27977E+09    6.69892E-06
       9      1.26718E-10    4.20822E-03    2.98263E-11     211.14        6.57341E-06    2.66355E+11
      10      7.83003E+05    1.08028E-10    2.96290E-02    1.17752E-07    3.66824E+11    7.97941E-06
      11      3.25349E+07    2.64491E-12    2.50800E-02    1.06589E-08    4.15477E+11    1.35095E-06
      12      1.52472E-12    4.66126E+06    7.82221E-11    8.12399E+10    8.14502E-06     243.33    
      13      0.20062        8.52893E-11    1.66385E+06    2.84168E-06     1746.8        1.07629E-05
      14      4.14040E-04    1.17182E-10     1792.1        1.35041E-06     16.682        6.17870E-06
      15      7.33660E-12    2.62627E+05    5.13501E-11    2.73428E+10    1.05869E-04     215.27    
      16      9.61576E-12    1.78030E-02    3.18114E-15     273.05        2.51382E-06    4.92709E+12
      17      6.27030E-15    7.70958E+06    1.43796E-11    1.23654E+11    8.70916E-07     3986.3    
      18      5.11676E-04    4.69281E-10    1.60446E+05    5.13693E-06     4348.0        1.67777E-07
      19      1.45445E-12     84005.        3.29340E-11    1.05291E+09    3.68872E-05     146.31    
      20       11822.        1.93830E-12    7.99274E-06    4.13804E-08    4.50335E+10    1.98912E-07
      21      6.81374E-05    6.10246E-14     2019.4        8.36329E-10     398.76        6.45304E-07
      22       2263.8        2.03343E-12    1.26341E-03    1.36712E-08    1.27328E+12    1.67513E-05
      23      0.20672        7.79790E-13    3.76863E+06    2.71963E-08     10241.        1.66477E-06
      24      9.09216E-10    3.12988E-03    8.46447E-10     28.342        6.19077E-05    2.59298E+08
      25      1.65333E+06    2.01345E-10    0.94788        3.09088E-07    5.41875E+10    1.18831E-05
      26      2.50473E-09    2.08643E-04    2.34514E-14     5.9537        4.27254E-05    2.15926E+10
      27      3.96608E-09     19465.        5.57810E-12    5.49964E+06    1.46980E-04     1572.6    
      28      2.54298E+05    2.21899E-11    8.91788E-04    1.17684E-10    1.14439E+09    1.41376E-05
      29      2.17768E+06    1.32188E-11    2.63135E-02    2.10568E-07    8.55833E+10    3.92465E-06
      30      3.69317E-11    3.93798E-02    7.75646E-10     316.98        7.60512E-07    3.31103E+10
      31      2.61225E-14    6.45765E+06    1.15323E-14    1.45130E+11    1.25720E-06     4184.6    
      32      3.14914E-14    1.07535E-02    1.29376E-13     216.11        2.12543E-07    2.83797E+12
      33      6.47872E-05    1.68327E-11     19464.        2.53611E-07     5.0108        1.05584E-06
      34      6.42938E-03    3.65883E-10    5.82799E+05    6.12675E-06     15.641        6.29641E-07
      35      1.35240E-13    2.18909E+06    8.22445E-11    3.44166E+10    3.66195E-07     34.622    
      36      3.38142E-12    3.11506E-05    8.75787E-12     5.1143        4.08207E-06    3.67271E+11
      37       154.16        8.89886E-13    2.83934E-06    5.66562E-09    1.50886E+09    3.58144E-06
      38      2.34963E-13    3.94718E-08    3.13282E-12    0.21437        1.18805E-05    6.16158E+09
      39       22944.        6.47805E-11    1.40317E-02    1.14500E-07    1.25692E+11    1.97912E-06
      40      3.33226E-11     32044.        8.89005E-12    8.72881E+07    4.77013E-07     1991.0    
      41      8.15566E-16    1.06479E-02    8.76889E-14     12.196        1.21907E-08    4.78189E+07
      42      9.11168E-14    1.33875E+05    3.86892E-14    7.46035E+07    2.97490E-07     359.53    
      43      4.71208E-06    2.11859E-12     2508.1        2.10087E-10    0.16610        1.96626E-07
      44      4.76424E-11     933.11        2.98128E-12    1.63474E+08    1.90948E-07     23.958    
      45      4.81410E-02    2.09120E-11    2.93849E+05    1.75541E-08    0.55429        1.09117E-05
      46      1.19262E-12    8.84503E-03    2.76848E-12     1.5896        4.74972E-06    2.22390E+11
      47       70.436        5.13491E-10    3.13774E-05    1.68154E-07    5.80376E+08    3.71993E-07
      48      2.53764E-14    7.19016E+05    2.09898E-16    2.16205E+08    3.34457E-07     6657.3    
      49      2.00160E-11    4.81430E-03    5.39340E-14     1.7814        1.82736E-05    1.79864E+11
      50       30849.        2.43171E-13    9.10642E-05    6.44953E-09    2.26398E+10    2.97537E-05
      51      1.64007E-04    1.88785E-13     26.704        5.05521E-08     31.433        3.99401E-06
      52       51.504        5.06660E-12    8.29226E-05    1.69395E-09    8.55766E+06    1.68039E-07
      53      2.71637E-07    1.18381E-11     1618.6        5.13168E-09    0.23663        1.21642E-06
      54      1.96054E-13    3.25728E-04    1.70653E-12     3.1538        1.46902E-07    5.03412E+08
      55      5.13865E-12     1735.3        1.49806E-13    2.22304E+07    4.09912E-06     96.728    
      56      1.62122E-11    6.25879E-02    8.38738E-12     128.58        3.08133E-06    2.15536E+10
      57      4.68618E-13    1.73280E+05    2.93259E-14     3329.2        2.57910E-07     364.16    
      58      3.07902E-04    7.36074E-12     1153.0        4.73231E-08     175.09        3.99054E-08
      59      7.26832E-12    8.34666E+05    5.92695E-12    2.17166E+09    1.16384E-04     1051.5    
      60       35370.        9.31092E-10    3.41466E-03    1.96285E-06    8.40803E+10    7.45625E-06
      61      6.58743E-12    1.56928E-04    3.01090E-13     3.9822        2.56228E-08    4.39672E+10
      62       991.06        4.04535E-13     30.734        8.22504E-10    4.26874E+10    7.57128E-08
      63      0.26187        2.18816E-14    1.15795E+05    8.39336E-11    1.13250E+07    2.34476E-10
      64       87.144        4.26331E-14    1.28307E-04    3.50674E-11    3.11168E+08    1.38978E-07
      65      1.40328E-10    7.13071E+05    3.16710E-11    4.55748E+07    1.53185E-07     955.84    
      66      0.42375        1.02917E-10    1.88347E+05    4.25342E-10     2.3410        1.32572E-08
      67      0.10551        1.86125E-11     188.15        1.27573E-08     175.35        3.60187E-07
      68      1.46455E-07    3.48121E+05    9.78121E-13    3.62196E+08    3.31324E-04    1.26713E+05
      69      2.09464E+06    2.56146E-08    2.44023E-02    2.19969E-05    4.83995E+09    1.02303E-03
      70      2.64392E-09    5.05488E-02    5.67969E-13     79.370        2.63517E-06    7.79803E+11
      71      7.72410E-13    5.59609E+05    4.81031E-13    5.52061E+07    7.43161E-08     905.42    
      72      2.88627E-10    7.65374E-03    2.67880E-12     12.301        2.03002E-05    1.44844E+11
      73      3.37808E-03    1.47094E-12     12484.        2.19858E-08     1926.0        2.53412E-07
      74       22.645        8.78984E-14    1.38010E-03    1.76997E-08    3.70570E+08    5.35686E-05
      75      1.53820E-12    9.55544E-03    5.17174E-13    0.22270        1.74214E-05    1.92275E+09
      76      1.06510E-02    1.20954E-12     3502.1        1.34211E-08     90230.        4.44514E-07
      77       278.25        2.35138E-12    0.15390        1.80613E-08    2.13214E+09    2.87527E-07
      78      1.25708E-03    4.95764E-12    2.80096E+05    4.26807E-10     1200.6        1.55315E-05
      79      1.40487E+05    2.15264E-12    3.46928E-03    3.45004E-07    1.36822E+11    6.21359E-06
      80      2.73188E-11    5.32487E-06    3.48576E-09     1.2170        5.51600E-05    1.28619E+09
      81      2.06638E-09     94.732        8.36419E-11    3.04563E+07    2.06765E-03     134.68    
      82       62177.        5.27271E-09    4.09695E-03    6.17244E-06    5.61684E+10    6.84714E-04
      83      1.28779E-10    1.87942E+06    1.61221E-12    2.17707E+09    1.52674E-04    1.96781E+06
      84      2.02583E-10     4.3476        1.20919E-13     5034.1        6.76876E-05    1.04251E+12
      85      0.19692        3.04467E-12     796.99        3.70180E-08     812.94        1.02608E-06
      86      6.54962E-11    1.18966E+06    3.60825E-13    2.24968E+09    2.04457E-08     40916.    
      87      8.15283E+06    3.60542E-12    1.13446E-03    9.03325E-09    4.31426E+09    2.24285E-05
      88      1.27980E-09     2543.6        3.19121E-11    3.26636E+08    1.40573E-07    1.59146E+06
      89      1.00884E-10    2.78831E-02    2.23339E-14     5803.9        2.91024E-07    8.16824E+10
      90       203.52        1.03566E-13    6.36332E-05    6.37892E-08    2.91384E+08    2.29147E-05
      91      2.62589E-10    4.31696E-04    2.28368E-11     26.944        1.87630E-07    4.57259E+10
      92      0.20126        9.42471E-13    1.43190E+05    3.69774E-09     395.94        2.50303E-06
      93      9.74588E-13    4.28429E+05    1.41814E-12    1.81540E+09    4.96325E-10     1441.7    
      94      2.85973E-02    7.36898E-11     1093.7        2.60004E-07     6.3987        2.10396E-08
      95      1.97865E-14    7.68999E-03    4.05520E-12     45.424        3.72274E-06    7.20496E+10
      96      2.18586E-12     4.4378        1.14708E-13     21958.        4.71014E-07    1.45755E+11
      97       73.960        1.51592E-09    0.45957        8.42854E-06    2.09695E+07    2.71393E-03
      98      8.95224E-06    9.63003E-09     2876.9        5.98894E-05     34629.        1.03560E-04
      99       2.0255        5.84618E-03     39.293         35.342         43636.         208.25    
     100      2.25889E-07     53501.        4.39273E-06    3.23541E+08    4.49791E-03    1.82840E+09

 TOTAL        4.83075E+07    4.92970E+07    2.66623E+07    5.99023E+11    4.73151E+12    1.33655E+13


          THE ANALYSIS HAS BEEN COMPLETED



                              ANALYSIS COMPLETE
                              WITH    133 WARNING MESSAGES ON THE DAT FILE
                              AND       1 WARNING MESSAGES ON THE MSG FILE



     JOB TIME SUMMARY
       USER TIME (SEC)      =   72.300    
       SYSTEM TIME (SEC)    =   15.600    
       TOTAL CPU TIME (SEC) =   87.900    
       WALLCLOCK TIME (SEC) =         48
